170
Properties=species:S:1:pos:R:3 pbc="F F F"
C        1.79143619       1.79143619      -1.79143619
C        3.11975092       1.43386732      -2.01929500
C        3.93246120       2.24434810      -2.81901560
C        3.41437873       3.41567990      -3.39069560
C        2.07379310       3.75894570      -3.15923229
C        1.26342107       2.94911049      -2.35923723
C        4.23698159       4.34130314      -4.21803472
O        3.77528910       5.32539038      -4.77679345
O        5.56036055       3.93843059      -4.19819611
C        6.51791605       4.81316174      -4.73957368
C        6.57922525       6.15601365      -4.36040857
C        7.61296528       6.96205205      -4.84074529
C        8.59077789       6.41725108      -5.67452131
Cl       9.88557809       7.42673474      -6.20564543
C        8.52546596       5.06579599      -6.03519605
C        7.49520680       4.25166032      -5.55906623
O        9.61628694       4.52157717      -6.74505283
C        9.41421645       3.56355030      -7.72235725
O        8.35491670       3.20621333      -8.20666481
C       10.72183009       2.91242499      -7.99574277
C       11.94294975       3.57056094      -7.78775924
C       13.14658981       2.88237607      -7.96491939
C       13.12812053       1.54252060      -8.35117415
Br      14.75533760       0.60077251      -8.54452578
C       11.91908140       0.88810794      -8.58471393
C       10.71479993       1.57530858      -8.41400404
H        3.53294197       0.53037097      -1.57696059
H        4.96605285       1.94696952      -2.97962687
H        1.65581619       4.66537904      -3.59511434
H        0.22860016       3.23299215      -2.18420001
H        5.83702546       6.58046464      -3.68941633
H        7.65996642       8.00624809      -4.54324630
H        7.45649854       3.19401295      -5.79846816
H       11.97266909       4.61321167      -7.47771390
H       14.08905777       3.39551457      -7.78719392
H       11.90190921      -0.15626796      -8.88649468
H        9.77199031       1.05771057      -8.58257848
C       -1.79143619      -1.79143619      -1.79143619
C       -2.91346980      -1.24563946      -2.41380399
C       -3.72820629      -2.05295933      -3.21465929
C       -3.41942769      -3.40963166      -3.39169488
C       -2.28288277      -3.94342126      -2.76566706
C       -1.47057796      -3.13617730      -1.96501353
C       -4.26709524      -4.33097568      -4.19824854
O       -3.96701315      -5.49585282      -4.41460696
O       -5.42238834      -3.68073256      -4.59386635
C       -6.44198538      -4.45479634      -5.17386976
C       -6.91462931      -5.61833857      -4.56267958
C       -8.00118630      -6.29676485      -5.11781146
C       -8.62330620      -5.79651846      -6.26272562
Cl      -9.99828883      -6.62836607      -6.89130337
C       -8.14838573      -4.62095995      -6.85711232
C       -7.06224186      -3.93523502      -6.30845648
O       -8.90235448      -4.06745537      -7.91310710
C       -8.27436393      -3.44735038      -8.97840968
O       -7.08461513      -3.44240989      -9.24076982
C       -9.29361056      -2.63921792      -9.69716937
C      -10.65744351      -2.96647936      -9.67734706
C      -11.58806543      -2.11968736     -10.28613249
C      -11.15532810      -0.95223345     -10.91425372
Br     -12.41977405       0.21498487     -11.69584671
C       -9.79877985      -0.63254155     -10.96058187
C       -8.86601648      -1.48015791     -10.35793817
H       -3.16476875      -0.19613013      -2.27937465
H       -4.59977903      -1.60592013      -3.68695008
H       -2.02907985      -4.99503642      -2.89219330
H       -0.59730916      -3.56703988      -1.48144327
H       -6.45277133      -5.99876585      -3.65536925
H       -8.36860592      -7.20099251      -4.63986239
H       -6.71085822      -3.00195069      -6.73617073
H      -11.01061032      -3.86952092      -9.18346343
H      -12.64541817      -2.37283629     -10.25351180
H       -9.45870512       0.27672086     -11.45015167
H       -7.80903833      -1.22054428     -10.38269674
C       -1.79143619       1.79143619       1.79143619
C       -1.20336373       2.71837796       2.65117155
C       -2.00806297       3.52102093       3.46674101
C       -3.40420939       3.39440529       3.42213954
C       -3.98244573       2.46297084       2.54655453
C       -3.17744468       1.66101649       1.73330762
C       -4.31423742       4.18985240       4.29222963
O       -5.53242893       4.13580267       4.20924133
O       -3.57258628       4.92332051       5.20108046
C       -4.26405545       5.56176428       6.24483174
C       -5.17578827       4.87237132       7.04748786
C       -5.75850198       5.51723890       8.14002174
C       -5.40904068       6.83519399       8.43831561
Cl      -6.10533821       7.58464718       9.82797287
C       -4.48262255       7.50999350       7.63384195
C       -3.89416176       6.87269911       6.53907249
O       -4.04071965       8.77897588       8.06322142
C       -3.77361729       9.78000341       7.14650329
O       -4.02762329       9.78522737       5.95494418
C       -2.97069543      10.82329567       7.83600676
C       -3.04778435      11.03264554       9.22084004
C       -2.19989179      11.95818864       9.83580485
C       -1.28108185      12.67288057       9.06785284
Br      -0.10347979      13.88940814       9.90774795
C       -1.21556227      12.48927343       7.68706757
C       -2.06589722      11.56905566       7.06915968
H       -0.12171252       2.82135023       2.69721077
H       -1.52671558       4.23427002       4.13166363
H       -5.06490497       2.35150559       2.49989901
H       -3.64115402       0.93932722       1.06531106
H       -5.43197521       3.83717547       6.83775574
H       -6.46640064       4.97864970       8.76441048
H       -3.14505506       7.37124880       5.93267579
H       -3.75366046      10.47594354       9.83399066
H       -2.25550840      12.10397956      10.91227830
H       -0.50055134      13.04562027       7.08596433
H       -2.00235152      11.41688154       5.99304630
C        1.79143619      -1.79143619       1.79143619
C        1.20868776      -2.77695469       2.58727079
C        2.01285945      -3.58006050       3.40290496
C        3.40306826      -3.39517974       3.42250622
C        3.97645013      -2.40490530       2.61061567
C        3.17191210      -1.60259729       1.79725940
C        4.30987377      -4.18913591       4.29730978
O        5.52705539      -4.08228856       4.26812897
O        3.56364398      -4.98981392       5.14352934
C        4.23859159      -5.64323416       6.18882572
C        5.08709155      -4.95197957       7.05657634
C        5.65176416      -5.61828266       8.14571580
C        5.34649954      -6.96074720       8.37530354
Cl       6.01693533      -7.73940670       9.76161623
C        4.48279651      -7.63795191       7.50570958
C        3.91279731      -6.97934753       6.41378853
O        4.07786557      -8.94081416       7.86423721
C        3.89068182      -9.91221659       6.89722558
O        4.19277680      -9.85678589       5.71823215
C        3.10526993     -11.01540256       7.50932536
C        3.13493339     -11.27978350       8.88655305
C        2.30267423     -12.26409582       9.42711524
C        1.44677143     -12.98235927       8.59268457
Br       0.28854554     -14.28002702       9.33206333
C        1.42958110     -12.74337894       7.21894323
C        2.26462279     -11.76415944       6.67533033
H        0.13137721      -2.92554422       2.58335210
H        1.53552093      -4.33969481       4.01743350
H        5.05423346      -2.24777857       2.61429755
H        3.63141081      -0.83512243       1.17925906
H        5.30759952      -3.89931243       6.89999448
H        6.31037854      -5.07830362       8.82077866
H        3.21062438      -7.48178651       5.75656876
H        3.79121893     -10.72132986       9.55104588
H        2.32071703     -12.45286774      10.49818150
H        0.76367302     -13.30235739       6.56610553
H        2.23838018     -11.56935192       5.60454726
C       -0.00445707       0.01189536      -1.78238275
H       -0.66409135       0.67374010      -2.43557963
H        0.65740317      -0.63156657      -2.45157240
C       -0.90989263      -0.90692880      -0.91072765
C        0.90977584       0.90977584      -0.90977584
C       -0.00465871       1.77757030       0.00794375
H       -0.66225468       2.44313916      -0.64384735
H        0.64322798       2.43503045       0.67728295
C       -1.78241447       0.00034974      -0.00472694
H       -2.45427497      -0.65498947       0.64260836
H       -2.43311707       0.67328779      -0.65473579
C       -0.91132561       0.90220522       0.91563759
C       -0.01476271      -0.02253852       1.78660255
H       -0.67934791      -0.69751639       2.42135241
H        0.63392994       0.61504881       2.47327442
C        0.01484550      -1.77751727      -0.01636693
H        0.67870853      -2.42144646      -0.68295456
H       -0.62264859      -2.45592969       0.64226336
C        1.78714474       0.01002794       0.00389507
H        2.44202412       0.67113390       0.66197326
H        2.45385902      -0.65136977      -0.64189061
C        0.91606151      -0.90478549       0.90901405
