149
Properties=species:S:1:pos:R:3 pbc="F F F"
C        0.00000000       0.00000000       0.00000000
C        0.88153217       0.88153217      -0.88153217
C        2.20984690       0.52396329      -1.10939098
C        3.02255718       1.33444407      -1.90911158
C        2.50447471       2.50577587      -2.48079157
C        1.16388908       2.84904168      -2.24932827
C        0.35351705       2.03920646      -1.44933320
C        3.32707757       3.43139912      -3.30813070
O        2.86538507       4.41548636      -3.86688942
O        4.65045652       3.02852657      -3.28829209
C        5.60801203       3.90325772      -3.82966965
C        5.66932123       5.24610962      -3.45050454
C        6.70306125       6.05214803      -3.93084127
C        7.68087387       5.50734706      -4.76461728
Cl       8.97567406       6.51683072      -5.29574141
C        7.61556194       4.15589196      -5.12529203
C        6.58530278       3.34175630      -4.64916221
O        8.70638292       3.61167315      -5.83514880
C        8.50431242       2.65364627      -6.81245323
O        7.44501268       2.29630931      -7.29676078
C        9.81192607       2.00252097      -7.08583875
C       11.03304572       2.66065692      -6.87785522
C       12.23668579       1.97247205      -7.05501537
C       12.21821650       0.63261658      -7.44127012
Br      13.84543358      -0.30913151      -7.63462175
C       11.00917737      -0.02179608      -7.67480990
C        9.80489591       0.66540456      -7.50410002
H        2.62303795      -0.37953306      -0.66705657
H        4.05614882       1.03706550      -2.06972284
H        0.74591217       3.75547502      -2.68521031
H       -0.68130387       2.32308812      -1.27429598
H        4.92712143       5.67056061      -2.77951231
H        6.75006240       7.09634407      -3.63334227
H        6.54659451       2.28410892      -4.88856414
H       11.06276506       3.70330765      -6.56780988
H       13.17915374       2.48561055      -6.87728990
H       10.99200519      -1.06617198      -7.97659066
H        8.86208629       0.14780654      -7.67267446
C       -0.88153217      -0.88153217      -0.88153217
C       -0.88466496      -2.26336276      -0.69517345
C       -1.68430531      -3.07446469      -1.50734283
C       -2.48142642      -2.50086208      -2.50875365
C       -2.47423030      -1.10827982      -2.67974891
C       -1.67411821      -0.29935037      -1.86858813
C       -3.32367371      -3.31109478      -3.43183889
O       -4.07370994      -2.81467708      -4.25937384
O       -3.07779837      -4.65776678      -3.23171002
C       -3.61494621      -5.56523641      -4.16075678
C       -3.43062677      -5.39996533      -5.53534329
C       -3.88822412      -6.38200855      -6.41581787
C       -4.50305392      -7.53187093      -5.91791336
Cl      -5.00700615      -8.75166746      -7.02957258
C       -4.66848575      -7.69161342      -4.53664676
C       -4.21339617      -6.71462448      -3.64820064
O       -5.14748593      -8.93424529      -4.07147364
C       -5.99255995      -8.99969363      -2.97815834
O       -6.55002395      -8.07611923      -2.41193959
C       -6.00025278     -10.40505348      -2.49497952
C       -5.73719117     -11.48949875      -3.34486794
C       -5.65825395     -12.78353044      -2.82238882
C       -5.84453518     -12.99148793      -1.45608009
Br      -5.69087651     -14.73563066      -0.74441665
C       -6.13168299     -11.92214434      -0.60836387
C       -6.21688719     -10.62854708      -1.12896622
H       -0.26674382      -2.71892345       0.07510581
H       -1.66757891      -4.14969556      -1.34566269
H       -3.08685468      -0.64671165      -3.45303116
H       -1.67488100       0.77747575      -2.01867499
H       -2.92813106      -4.52023818      -5.92882512
H       -3.74237164      -6.25244699      -7.48493011
H       -4.29923481      -6.84557065      -2.57446212
H       -5.58099413     -11.34134986      -4.41153860
H       -5.43909721     -13.61735069      -3.48560629
H       -6.27792917     -12.08161997       0.45712528
H       -6.42645913      -9.79362474      -0.46248341
C       -0.88153217       0.88153217       0.88153217
C       -0.50945436       2.20177131       1.13197550
C       -1.31029613       3.00911658       1.94670012
C       -2.48532668       2.49309281       2.51262267
C       -2.85141813       1.16521180       2.24562909
C       -2.04994982       0.35949674       1.43261016
C       -3.35970237       3.28717160       3.41973341
O       -4.42021970       2.86801962       3.85952154
O       -2.76148340       4.50182193       3.70396985
C       -3.33349353       5.29088477       4.71656111
C       -3.62234189       4.76554205       5.97805145
C       -4.08883585       5.61029371       6.98692098
C       -4.23971299       6.97531650       6.73780871
Cl      -4.76515170       8.00070024       8.02239425
C       -3.93264346       7.49130319       5.47279929
C       -3.46486125       6.65382224       4.45753780
O       -3.94673930       8.89287869       5.31358688
C       -4.37736286       9.46372253       4.12932653
O       -4.93130721       8.91163638       3.19513918
C       -3.91315758      10.87537471       4.11175349
C       -3.68104604      11.60098807       5.28952375
C       -3.15039121      12.89230839       5.22147361
C       -2.85607097      13.45577761       3.98025463
Br      -2.09489547      15.18350028       3.89252807
C       -3.10762248      12.75099259       2.80357613
C       -3.64339131      11.46242510       2.86858407
H        0.40208870       2.61048361       0.70216654
H       -0.99796586       4.03438621       2.13058510
H       -3.76037044       0.74863693       2.67759013
H       -2.34434989      -0.66946970       1.24120004
H       -3.48109698       3.70847938       6.18761800
H       -4.31142377       5.19999281       7.96833217
H       -3.18510234       7.04808193       3.48608331
H       -3.89760657      11.17091066       6.26536536
H       -2.95930587      13.44280966       6.13993866
H       -2.87962654      13.18821249       1.83458483
H       -3.82487633      10.90872082       1.94897014
C        0.88153217      -0.88153217       0.88153217
C        1.03355546      -0.57614385       2.23350186
C        1.84786228      -1.37658821       3.04166234
C        2.51208684      -2.48424237       2.49471295
C        2.34364387      -2.78414543       1.13446972
C        1.53090632      -1.98307801       0.32807239
C        3.42365292      -3.35191112       3.29104334
O        3.94975740      -4.35846694       2.83953651
O        3.60171581      -2.81286741       4.55269195
C        4.60044145      -3.37290860       5.36758935
C        5.90490107      -3.55729974       4.90373458
C        6.89038343      -4.01575986       5.77990725
C        6.57357610      -4.26264699       7.11661512
Cl       7.82710505      -4.77506166       8.18607948
C        5.26504242      -4.05973315       7.57197035
C        4.27269877      -3.60079154       6.70273099
O        5.02749323      -4.16740108       8.95831056
C        3.84081786      -4.69835548       9.43123859
O        2.97467812      -5.27022808       8.79317657
C        3.71498896      -4.32191979      10.86337703
C        4.83341823      -4.06738372      11.67075591
C        4.66012259      -3.62033886      12.98371175
C        3.37336536      -3.43164179      13.48709606
Br       3.14172584      -2.78231965      15.24687832
C        2.25601206      -3.70674542      12.69943371
C        2.42642792      -4.15922583      11.38874673
H        0.52697795       0.28314841       2.66673191
H        1.95394210      -1.11673138       4.09226369
H        2.85265703      -3.64025905       0.69368142
H        1.41645578      -2.22527146      -0.72564701
H        6.16536020      -3.34084196       3.87099219
H        7.90518606      -4.15699343       5.41756925
H        3.26528175      -3.40104961       7.05293622
H        5.84343190      -4.20173432      11.28871637
H        5.53257718      -3.41087430      13.59860271
H        1.25172883      -3.56104003      13.08965501
H        1.55243140      -4.35899525      10.77114064
