170
Properties=species:S:1:pos:R:3 pbc="F F F"
C        1.79149765       1.79149765      -1.79149765
C        1.64289491       1.75775616      -3.17790162
C        2.43964758       2.57819107      -3.98370212
C        3.37856024       3.43912316      -3.40033796
C        3.53139947       3.44981575      -2.00442670
C        2.73627846       2.62838737      -1.20145134
C        4.16723614       4.34196202      -4.28361489
O        4.28607146       4.19864300      -5.48994084
O        4.64287583       5.38544180      -3.50809269
C        5.35222474       6.45736822      -4.07672691
C        5.01091873       7.72515032      -3.60010208
C        5.71002372       8.84387886      -4.04652323
C        6.76707460       8.67572772      -4.94190207
O        7.45517939       9.78479476      -5.47793157
C        7.81495502      10.86301779      -4.68593747
O        7.65170321      10.98386692      -3.48271465
C        8.48436793      11.88595446      -5.53731353
C        8.45136762      11.83115712      -6.93932049
C        9.10211173      12.80894366      -7.69769551
C        9.78354885      13.84227595      -7.05830546
Br      10.67248339      15.15447961      -8.08755412
C        9.81498381      13.91384143      -5.66612381
C        9.16239724      12.93846097      -4.90616167
C        7.10662245       7.39925761      -5.41500933
Cl       8.40167441       7.17820470      -6.53545016
C        6.40115714       6.27843524      -4.97483343
H        0.90666166       1.10422524      -3.63952968
H        2.31235009       2.55432227      -5.06477818
H        4.26336146       4.09497670      -1.52363029
H        2.85886711       2.65476627      -0.12130286
H        4.20058002       7.84279768      -2.88573723
H        5.42602527       9.82876949      -3.68783372
H        7.92338118      11.03591197      -7.46072103
H        9.07146296      12.75168217      -8.78319257
H       10.34495593      14.71972199      -5.16423410
H        9.19174442      13.00001985      -3.81931773
H        6.66892531       5.28722691      -5.32779678
C       -1.79149765      -1.79149765      -1.79149765
C       -2.85589756      -2.49482485      -1.22783027
C       -3.67312965      -3.28909280      -2.03931832
C       -3.42991649      -3.37141777      -3.41668709
C       -2.34367867      -2.67326653      -3.96869673
C       -1.52744856      -1.88217830      -3.15649030
C       -4.35539490      -4.17765727      -4.25976088
O       -5.13454772      -5.01213939      -3.82796818
O       -4.22559520      -3.74307545      -5.56773968
C       -5.03993179      -4.25258807      -6.59380000
C       -5.52989174      -3.30785342      -7.49842598
C       -6.28341142      -3.72363208      -8.59338230
C       -6.50981260      -5.08677372      -8.78811807
O       -7.32824923      -5.54940960      -9.84024689
C       -7.24408277      -5.00741209     -11.11241541
O       -6.46872064      -4.14888624     -11.50067789
C       -8.25423582      -5.66690756     -11.98649254
C       -9.28036959      -6.47248559     -11.46899006
C      -10.20099362      -7.07888344     -12.32887385
C      -10.09983849      -6.88019364     -13.70409813
Br     -11.33881834      -7.71232170     -14.86337708
C       -9.09126943      -6.07366825     -14.23001138
C       -8.17145532      -5.46418964     -13.37137492
C       -6.01276517      -6.03099191      -7.87713232
Cl      -6.29894982      -7.71955500      -8.09682445
C       -5.26477196      -5.61476468      -6.77488917
H       -3.06222984      -2.42566710      -0.16251965
H       -4.50825814      -3.82819904      -1.59499335
H       -2.11957408      -2.73085877      -5.03153559
H       -0.69600367      -1.33927362      -3.59965895
H       -5.32892305      -2.25033473      -7.34985714
H       -6.67884320      -2.98233582      -9.28144946
H       -9.38128463      -6.63973357     -10.39899599
H      -10.98854065      -7.70363085     -11.91416620
H       -9.01044087      -5.91573801     -15.30273314
H       -7.38581701      -4.83628752     -13.78897747
H       -4.86669862      -6.34268258      -6.07456779
C       -1.79149765       1.79149765       1.79149765
C       -2.92014389       2.40741340       1.25099540
C       -3.73642461       3.20143380       2.06368238
C       -3.42742069       3.37086336       3.41973731
C       -2.27787937       2.76060070       3.94716185
C       -1.46280754       1.96966048       3.13364915
C       -4.35066736       4.17296177       4.26918393
O       -5.19519760       4.94151920       3.83793850
O       -4.13025832       3.81732430       5.58882770
C       -4.91713388       4.33919131       6.62999468
C       -5.30781372       3.42100302       7.60735439
C       -6.02540342       3.85627344       8.71874894
C       -6.31517480       5.21450630       8.85502329
O       -7.10225019       5.69083272       9.92482280
C       -6.92335685       5.22378553      11.21676790
O       -6.08354291       4.42869233      11.60604953
C       -7.92147369       5.87687409      12.10928814
C       -9.01513682       6.59923212      11.60747629
C       -9.92182300       7.20321253      12.48371537
C       -9.73932644       7.08498221      13.85982162
Br     -10.96031432       7.91392287      15.04027993
C       -8.66269407       6.36123157      14.37102341
C       -7.75658397       5.75420507      13.49623084
C       -5.91772689       6.13219920       7.87096330
Cl      -6.28350304       7.81321676       8.01860947
C       -5.20599911       5.69580106       6.75262563
H       -3.17701231       2.26996239       0.20344188
H       -4.62137638       3.67188017       1.63819398
H       -2.00278766       2.88729979       4.99188099
H       -0.58138228       1.49517378       3.55838018
H       -5.05762470       2.36873322       7.50275700
H       -6.34402385       3.13405986       9.46454477
H       -9.17996475       6.70269902      10.53735041
H      -10.76245268       7.76311921      12.08076581
H       -8.51826185       6.26616982      15.44448035
H       -6.91753721       5.19121145      13.90233333
H       -4.88464911       6.40414432       5.99515558
C        1.79149765      -1.79149765       1.79149765
C        1.45901628      -1.98779176       3.13174464
C        2.25816754      -2.80911654       3.93425670
C        3.38487255      -3.44119287       3.39195594
C        3.71926212      -3.22032214       2.04605767
C        2.92118865      -2.39823775       1.24669077
C        4.17842611      -4.35603926       4.25834768
O        4.11498892      -4.38265056       5.47701582
O        4.90407178      -5.19862021       3.43371833
C        5.68675618      -6.24190064       3.95766304
C        5.60676942      -7.45660132       3.27280039
C        6.40252635      -8.52857883       3.66932062
C        7.29530958      -8.36077505       4.72861976
O        8.06707746      -9.43829362       5.21253464
C        8.68662531     -10.32761230       4.34967267
O        8.70273755     -10.28527982       3.13026741
C        9.38569457     -11.37093194       5.15100941
C        9.16124057     -11.53380120       6.52680347
C        9.84737864     -12.52125510       7.24011716
C       10.75526728     -13.34751762       6.58134537
Br      11.68987682     -14.67238667       7.55225363
C       10.97943767     -13.20276935       5.21274203
C       10.29206677     -12.21767412       4.49727898
C        7.37271987      -7.13726042       5.41090911
Cl       8.46116513      -6.92048942       6.73367471
C        6.56959564      -6.06501083       5.01981933
H        0.57824191      -1.51391236       3.55826232
H        1.98808805      -2.96607066       4.97729183
H        4.59709805      -3.68365955       1.60121084
H        3.18691304      -2.24450069       0.20352251
H        4.92432129      -7.56997732       2.43481631
H        6.32039999      -9.47645747       3.14577102
H        8.45520499     -10.90282182       7.06198738
H        9.66635542     -12.63348993       8.30649235
H       11.68647043     -13.84686180       4.69557978
H       10.47264189     -12.10961640       3.42882371
H        6.63561498      -5.11220375       5.53613027
C       -0.00445707       0.01189536      -1.78238275
H       -0.66409135       0.67374010      -2.43557963
H        0.65740317      -0.63156657      -2.45157240
C       -0.90989263      -0.90692880      -0.91072765
C        0.90977584       0.90977584      -0.90977584
C       -0.00465871       1.77757030       0.00794375
H       -0.66225468       2.44313916      -0.64384735
H        0.64322798       2.43503045       0.67728295
C       -1.78241447       0.00034974      -0.00472694
H       -2.45427497      -0.65498947       0.64260836
H       -2.43311707       0.67328779      -0.65473579
C       -0.91132561       0.90220522       0.91563759
C       -0.01476271      -0.02253852       1.78660255
H       -0.67934791      -0.69751639       2.42135241
H        0.63392994       0.61504881       2.47327442
C        0.01484550      -1.77751727      -0.01636693
H        0.67870853      -2.42144646      -0.68295456
H       -0.62264859      -2.45592969       0.64226336
C        1.78714474       0.01002794       0.00389507
H        2.44202412       0.67113390       0.66197326
H        2.45385902      -0.65136977      -0.64189061
C        0.91606151      -0.90478549       0.90901405
