145
Properties=species:S:1:pos:R:3 pbc="F F F"
C        0.00000000       0.00000000       0.00000000
O        4.23153560       3.25831133      -6.26938448
C        4.51613734       4.38467014      -5.87795439
O        3.77908479       5.10553108      -4.97999751
C        2.76868367       4.34071500      -4.31805593
C        3.38887837       3.39258533      -3.29177321
O        4.60082862       3.36479357      -3.07520877
C        2.48752258       2.51392985      -2.48939639
C        1.13525939       2.33013250      -2.80313770
C        0.33415733       1.51215614      -1.99802941
C        0.88127461       0.88127461      -0.88127461
C        2.22606840       1.05123974      -0.56382405
C        3.02779494       1.86323231      -1.36940234
C        5.77405800       5.16188609      -6.23720820
N        6.62523082       4.41820833      -7.15174096
C        6.59504588       4.65225348      -8.50661102
O        5.92945044       5.54623124      -9.01686334
C        7.47256802       3.79740050      -9.35359272
C        7.81257307       2.48335246      -9.00437404
C        8.67471820       1.74396044      -9.82130508
C        9.18622265       2.31281342     -10.98790771
Br      10.36290066       1.31549892     -12.08048316
C        8.83395500       3.60968854     -11.35626828
C        7.97344535       4.34869218     -10.54130228
H        2.16062832       3.80272269      -5.05118958
H        2.13180622       5.05349714      -3.78254864
H        0.67592070       2.79851538      -3.66848963
H       -0.71463801       1.37275089      -2.25043882
H        2.66097604       0.56170657       0.30405139
H        4.07886988       1.99132434      -1.11280878
H        6.35543512       5.31854018      -5.32389344
H        5.49153973       6.12338508      -6.67401220
H        7.12791167       3.62801440      -6.77392027
H        7.40113608       2.00924030      -8.11820234
H        8.93719330       0.72628406      -9.54240028
H        9.22198549       4.05538322     -12.26841596
H        7.70124116       5.36312726     -10.82834372
O       -4.99714539      -2.88619682      -5.87588920
C       -4.91762862      -4.10378649      -5.75734677
O       -3.82699353      -4.76829140      -5.26932845
C       -2.86006002      -3.91426887      -4.65312571
C       -3.36145270      -3.41296573      -3.29881847
O       -4.44465318      -3.76533946      -2.83083832
C       -2.48243169      -2.51189276      -2.49652437
C       -1.33919722      -1.90194765      -3.02738472
C       -0.54057768      -1.08586918      -2.21789601
C       -0.88127461      -0.88127461      -0.88127461
C       -2.01942171      -1.47698441      -0.34472606
C       -2.82002595      -2.28752213      -1.15288152
C       -6.03104731      -5.10158653      -6.04051845
N       -7.23810815      -4.44346969      -6.51360228
C       -7.53180274      -4.36713388      -7.85497377
O       -6.85775886      -4.91471936      -8.72006680
C       -8.76864273      -3.62630972      -8.22860880
C       -9.27064515      -2.56123353      -7.46842089
C      -10.46031239      -1.93086233      -7.84880900
C      -11.13935778      -2.35711073      -8.99047526
Br     -12.75439308      -1.51260940      -9.49188026
C      -10.63475017      -3.39865324      -9.76650841
C       -9.44723838      -4.02869175      -9.38750967
H       -2.60506232      -3.08726012      -5.32221815
H       -1.96452668      -4.52174775      -4.48157757
H       -1.04635245      -2.03157204      -4.06500122
H        0.34427575      -0.61382834      -2.63899912
H       -2.29314898      -1.32135619       0.69587395
H       -3.70827086      -2.75046553      -0.72426661
H       -6.29253278      -5.60185544      -5.10348052
H       -5.68181857      -5.83318047      -6.77393798
H       -7.77365314      -3.92042415      -5.83576905
H       -8.74227692      -2.19177455      -6.59452725
H      -10.84598239      -1.10756602      -7.25232922
H      -11.15432258      -3.72952441     -10.66193768
H       -9.05536337      -4.84455200      -9.99279677
O       -4.27111892       6.25618585       3.23192664
C       -4.98731173       5.72084637       4.07060377
O       -5.43077348       4.42925971       4.00458019
C       -4.78024396       3.64732282       2.99988782
C       -3.35042379       3.30459548       3.41821764
O       -2.88741577       3.64652783       4.50688737
C       -2.51095817       2.48158205       2.49830861
C       -2.87438463       2.22324513       1.17089983
C       -2.05710295       1.42353175       0.36370817
C       -0.88127461       0.88127461       0.88127461
C       -0.50653760       1.13718307       2.19741152
C       -1.31871394       1.93927699       3.00243866
C       -5.44796378       6.34594080       5.37924771
N       -4.95944106       7.70718061       5.52855844
C       -5.74952387       8.78854123       5.21584529
O       -6.92467147       8.68501761       4.88285594
C       -5.12922804      10.13495420       5.35937901
C       -3.75614533      10.35694617       5.18720807
C       -3.22631561      11.63801623       5.37565188
C       -4.06782866      12.69458105       5.72453407
Br      -3.34523893      14.42044687       5.99319694
C       -5.43790435      12.48864479       5.87336269
C       -5.96777630      11.21007102       5.68559249
H       -4.80723980       4.16870549       2.03859530
H       -5.34354643       2.71162847       2.91267710
H       -3.77807630       2.63410927       0.73074015
H       -2.34555802       1.23004942      -0.66705574
H        0.40938101       0.71972609       2.60828613
H       -1.01811761       2.13338365       4.03150174
H       -5.02451908       5.76767305       6.20567660
H       -6.54001791       6.32440845       5.42451065
H       -3.97657446       7.82469971       5.72857217
H       -3.08746127       9.55655074       4.88456671
H       -2.15953833      11.80233631       5.24400299
H       -6.10005888      13.30938876       6.13633703
H       -7.03804434      11.04947955       5.80518824
O        4.41154535      -6.20294706       3.14473899
C        5.06319370      -5.67604860       4.03951957
O        5.44776753      -4.36412550       4.05272036
C        4.80699033      -3.56576432       3.05469995
C        3.34520914      -3.30789051       3.42013726
O        2.85028439      -3.72129396       4.46925261
C        2.51014234      -2.48104796       2.49965852
C        2.92039214      -2.14428670       1.20385076
C        2.10348464      -1.34501182       0.39584641
C        0.88127461      -0.88127461       0.88127461
C        0.46013144      -1.21559034       2.16541041
C        1.27215422      -2.01736853       2.97090685
C        5.49341137      -6.34078835       5.33895258
N        5.06340674      -7.72817393       5.40359945
C        5.91689325      -8.75690139       5.08011574
O        7.09965326      -8.58496867       4.80792308
C        5.35495688     -10.13515378       5.13345059
C        4.00302110     -10.41039113       4.88688734
C        3.52625380     -11.72148363       4.99224629
C        4.40009590     -12.75435585       5.33249202
Br       3.74834486     -14.52176197       5.48877591
C        5.75083958     -12.49417452       5.55489772
C        6.22773641     -11.18560287       5.45010052
H        4.90181250      -4.03948221       2.07324588
H        5.32888955      -2.60257949       3.03638296
H        3.86136156      -2.49281745       0.78874670
H        2.42862176      -1.09033469      -0.61040475
H       -0.49203096      -0.85965021       2.55101196
H        0.93500774      -2.27313522       3.97486004
H        5.00637501      -5.82180017       6.16969355
H        6.58008686      -6.27225476       5.43659539
H        4.07916724      -7.89914098       5.55153812
H        3.31163975      -9.62754039       4.58939858
H        2.47542639     -11.92728826       4.80316298
H        6.43845148     -13.29575367       5.81157952
H        7.28276584     -10.98279323       5.62715306
