178
Properties=species:S:1:pos:R:3 pbc="F F F"
C        1.79130993       1.79130993      -1.79130993
C        2.43466694       2.89643559      -1.24167657
C        3.22576972       3.71068761      -2.05638026
C        3.37702167       3.42552411      -3.42285424
C        2.74144475       2.29821168      -3.95883614
C        1.94418298       1.48647244      -3.14307514
C        4.19430159       4.36617048      -4.25001669
O        4.80952034       5.27188508      -3.68931299
C        4.21958529       4.19372973      -5.76579613
O        4.49907109       5.44315087      -6.40113332
C        5.80755233       5.74702542      -6.52953509
O        6.76416138       5.02070211      -6.32515110
C        5.93671405       7.20394255      -6.99725707
O        5.44130961       7.62631209      -8.02796227
O        6.68839203       7.88687504      -6.10694212
C        6.80811229       9.28203154      -6.37474515
C        5.57460216      10.07600203      -5.94835673
O        4.57497129       9.53441164      -5.47835724
C        5.60234143      11.56468184      -6.09226347
C        4.48414391      12.29764761      -5.66589977
C        4.46684265      13.69181449      -5.76707431
C        5.56918313      14.35819364      -6.29582396
C        6.68609267      13.64350255      -6.72508401
C        6.70431647      12.24780638      -6.62458720
H        2.32428642       3.13956892      -0.18778676
H        3.71685021       4.57917838      -1.61850189
H        2.84045572       2.02285557      -5.00447411
H        1.44336183       0.62156764      -3.57223719
H        3.23577886       3.88985056      -6.13028164
H        4.94917748       3.42236257      -6.03704967
H        7.01969179       9.45118549      -7.43676034
H        7.66303060       9.63323559      -5.78810596
H        3.61782492      11.78563197      -5.24861533
H        3.59202015      14.24250887      -5.43021140
H        7.54775459      14.16267314      -7.13861399
H        7.59281793      11.72755040      -6.96964318
C        5.55726965      15.79441870      -6.39934037
C        5.54729210      16.99725719      -6.48603536
Br       5.53115926      18.94214529      -6.62621382
C       -1.79130993      -1.79130993      -1.79130993
C       -2.41427747      -1.24756598      -2.91093565
C       -3.23467815      -2.05380710      -3.70435234
C       -3.43709226      -3.40550311      -3.38280465
C       -2.78729374      -3.94559286      -2.26560596
C       -1.97034985      -3.13551695      -1.46786376
C       -4.36837759      -4.19973561      -4.24237557
O       -4.81612224      -3.68740606      -5.26719010
C       -4.75851850      -5.61012765      -3.81046500
O       -6.03545418      -5.95735585      -4.35054526
C       -6.01583377      -6.46937392      -5.59890516
O       -5.04417813      -6.82196067      -6.24387580
C       -7.45640861      -6.55830000      -6.12320505
O       -8.33717843      -7.19150335      -5.56690220
O       -7.54966706      -5.85816663      -7.27437549
C       -8.86473300      -5.78069934      -7.81945664
C       -9.73921992      -4.74542527      -7.11431572
O       -9.34206516      -4.10140322      -6.14427179
C      -11.11672942      -4.49945685      -7.64310047
C      -11.90681587      -3.52189375      -7.01898167
C      -13.19584618      -3.24574018      -7.48414509
C      -13.69949137      -3.94742033      -8.57628904
C      -12.92714658      -4.92238314      -9.20514950
C      -11.63675544      -5.19987398      -8.74008062
H       -2.27731009      -0.20135567      -3.17297635
H       -3.72584840      -1.61590280      -4.57277928
H       -2.89536128      -4.98861488      -1.98380924
H       -1.48173864      -3.56115222      -0.59427580
H       -4.87337381      -5.65726957      -2.72526768
H       -3.97813860      -6.31752997      -4.11292116
H       -9.34748948      -6.76438625      -7.79576188
H       -8.74479654      -5.47564264      -8.86393296
H      -11.52082998      -2.96586721      -6.16537503
H      -13.79241834      -2.48387142      -6.98845067
H      -13.31937528      -5.47150684     -10.05815960
H      -11.06686772      -5.96617924      -9.25696455
C      -15.02562221      -3.66444854      -9.06095797
C      -16.13625678      -3.42745966      -9.46686821
Br     -17.93205895      -3.04426870     -10.12319072
C       -1.79130993       1.79130993       1.79130993
C       -1.33109111       2.20296069       3.03872730
C       -2.14871523       2.99456262       3.84955973
C       -3.42904087       3.37754223       3.41881692
C       -3.87165692       2.97435009       2.15248557
C       -3.05413951       2.17623303       1.34335803
C       -4.27393727       4.18064900       4.35590250
O       -3.77745102       4.58831043       5.40495695
C       -5.73308295       4.44744424       3.99858395
O       -6.50263915       4.65589923       5.18481690
C       -6.50722215       5.92007857       5.65681213
O       -6.08013489       6.92098130       5.10889840
C       -7.16146044       5.93042575       7.04602748
O       -8.29689145       5.54057046       7.25812206
O       -6.29191166       6.45230151       7.93799601
C       -6.74219893       6.43215985       9.29053021
C       -6.59518688       5.05936309       9.94441094
O       -6.18179891       4.07870908       9.32723218
C       -6.94912013       4.91913431      11.39103229
C       -6.77868178       3.66721263      12.00179688
C       -7.08265372       3.48853796      13.35453978
C       -7.55882212       4.56272297      14.10165565
C       -7.73491994       5.81148933      13.50826995
C       -7.43127419       5.99136119      12.15407466
H       -0.34621948       1.91080777       3.39461484
H       -1.78305350       3.30296074       4.82851624
H       -4.84518938       3.25822471       1.76437132
H       -3.41300144       1.85655692       0.36760831
H       -6.17107713       3.57345179       3.51138214
H       -5.79490546       5.30036728       3.31331698
H       -7.78212472       6.77263319       9.35287971
H       -6.10939276       7.14142247       9.83355692
H       -6.40445044       2.82128882      11.42633297
H       -6.94277263       2.51149474      13.81047305
H       -8.10709562       6.65139269      14.09055341
H       -7.58188539       6.97916611      11.72896001
C       -7.87051936       4.38435403      15.49615533
C       -8.13156580       4.23497005      16.66404881
Br      -8.55365580       3.99342878      18.55243379
C        1.79130993      -1.79130993       1.79130993
C        2.66506580      -2.70252734       1.20518596
C        3.45659526      -3.51993638       2.01630595
C        3.37839792      -3.43158040       3.41542170
C        2.51065352      -2.49549753       3.99234152
C        1.71362360      -1.68120656       3.17890040
C        4.21340742      -4.37115776       4.22592359
O        5.03030455      -5.08920186       3.65121199
C        4.00938354      -4.43300574       5.73672187
O        4.39116766      -5.71696840       6.23521923
C        5.70192019      -5.85977136       6.52242130
O        6.55352281      -4.98959105       6.56690074
C        5.99093302      -7.34103402       6.80594662
O        5.43370232      -7.97972800       7.68215365
O        6.95098044      -7.77189174       5.95933700
C        7.24787678      -9.16308486       6.05392735
C        6.21976458     -10.03902815       5.34016818
O        5.22022030      -9.56957763       4.79794225
C        6.45757782     -11.51491508       5.28679383
C        5.53293048     -12.31576201       4.59899880
C        5.71775689     -13.69853300       4.50944156
C        6.82928240     -14.28552062       5.10839771
C        7.75510416     -13.50318295       5.79639212
C        7.57085438     -12.11889644       5.88695923
H        2.73509786      -2.79254884       0.12399539
H        4.12983739      -4.23705926       1.54763383
H        2.42561642      -2.37417324       5.06799575
H        1.03256181      -0.96754750       3.63705736
H        2.95074232      -4.32299905       5.98216968
H        4.56835644      -3.62244258       6.21779070
H        7.33948788      -9.46443692       7.10371283
H        8.21727516      -9.30230998       5.56478701
H        4.66143001     -11.86562420       4.12501802
H        4.99128690     -14.30230354       3.97114999
H        8.62365094     -13.96036663       6.26502415
H        8.31432259     -11.54436479       6.43132414
C        7.02556465     -15.70910820       5.01635587
C        7.18995103     -16.90136279       4.93927083
Br       7.45574990     -18.82913763       4.81463084
C       -0.00445707       0.01189536      -1.78238275
H       -0.66409135       0.67374010      -2.43557963
H        0.65740317      -0.63156657      -2.45157240
C       -0.90989263      -0.90692880      -0.91072765
C        0.90977584       0.90977584      -0.90977584
C       -0.00465871       1.77757030       0.00794375
H       -0.66225468       2.44313916      -0.64384735
H        0.64322798       2.43503045       0.67728295
C       -1.78241447       0.00034974      -0.00472694
H       -2.45427497      -0.65498947       0.64260836
H       -2.43311707       0.67328779      -0.65473579
C       -0.91132561       0.90220522       0.91563759
C       -0.01476271      -0.02253852       1.78660255
H       -0.67934791      -0.69751639       2.42135241
H        0.63392994       0.61504881       2.47327442
C        0.01484550      -1.77751727      -0.01636693
H        0.67870853      -2.42144646      -0.68295456
H       -0.62264859      -2.45592969       0.64226336
C        1.78714474       0.01002794       0.00389507
H        2.44202412       0.67113390       0.66197326
H        2.45385902      -0.65136977      -0.64189061
C        0.91606151      -0.90478549       0.90901405
