157
Properties=species:S:1:pos:R:3 pbc="F F F"
C        0.00000000       0.00000000       0.00000000
C        0.88140591       0.88140591      -0.88140591
C        1.52476292       1.98653156      -0.33177255
C        2.31586570       2.80078358      -1.14647624
C        2.46711765       2.51562009      -2.51295021
C        1.83154072       1.38830766      -3.04893212
C        1.03427896       0.57656842      -2.23317111
C        3.28439757       3.45626646      -3.34011267
O        3.89961631       4.36198105      -2.77940897
C        3.30968126       3.28382571      -4.85589210
O        3.58916707       4.53324684      -5.49122929
C        4.89764831       4.83712140      -5.61963107
O        5.85425735       4.11079809      -5.41524708
C        5.02681003       6.29403852      -6.08735304
O        4.53140559       6.71640806      -7.11805825
O        5.77848800       6.97697101      -5.19703809
C        5.89820827       8.37212751      -5.46484113
C        4.66469813       9.16609800      -5.03845270
O        3.66506727       8.62450762      -4.56845321
C        4.69243740      10.65477781      -5.18235944
C        3.57423989      11.38774358      -4.75599575
C        3.55693862      12.78191047      -4.85717029
C        4.65927911      13.44828962      -5.38591994
C        5.77618864      12.73359852      -5.81517999
C        5.79441244      11.33790235      -5.71468318
H        1.41438240       2.22966489       0.72211727
H        2.80694619       3.66927435      -0.70859786
H        1.93055170       1.11295155      -4.09457009
H        0.53345781      -0.28833638      -2.66233317
H        2.32587484       2.97994654      -5.22037762
H        4.03927346       2.51245855      -5.12714565
H        6.10978776       8.54128147      -6.52685632
H        6.75312657       8.72333156      -4.87820194
H        2.70792090      10.87572795      -4.33871130
H        2.68211613      13.33260485      -4.52030737
H        6.63785056      13.25276912      -6.22870997
H        6.68291391      10.81764638      -6.05973916
C        4.64736562      14.88451468      -5.48943634
C        4.63738808      16.08735316      -5.57613133
Br       4.62125524      18.03224127      -5.71630980
C       -0.88140591      -0.88140591      -0.88140591
C       -1.54856274      -0.32540632      -1.96909796
C       -2.36860619      -1.13236866      -2.76215067
C       -2.52655131      -2.49705228      -2.47208436
C       -1.83274465      -3.04861008      -1.38742577
C       -1.01613949      -2.23802324      -0.58985575
C       -3.45950731      -3.29327249      -3.32799688
O       -3.94817223      -2.76642072      -4.32641337
C       -3.80051125      -4.72459980      -2.92428803
O       -5.08200319      -5.09190997      -3.43973005
C       -5.08269268      -5.57013347      -4.70157462
O       -4.11989618      -5.87917204      -5.38123431
C       -6.53408689      -5.68417096      -5.18994374
O       -7.38248387      -6.35542219      -4.62796584
O       -6.67688788      -4.95672475      -6.31888447
C       -8.00781023      -4.90054287      -6.82682382
C       -8.88986960      -3.90825992      -6.07111932
O       -8.48371426      -3.27951142      -5.09480242
C      -10.28719034      -3.68581677      -6.55656755
C      -11.08558166      -2.74678397      -5.88561359
C      -12.39355981      -2.49345899      -6.30900058
C      -12.90791496      -3.17948907      -7.40608463
C      -12.12744952      -4.11627870      -8.08123893
C      -10.81807882      -4.37090067      -7.65801848
H       -1.44635650       0.73067003      -2.20624356
H       -2.89447147      -0.68518569      -3.60516125
H       -1.90562096      -4.10123882      -1.13121355
H       -0.49301506      -2.67315122       0.25871168
H       -3.88466943      -4.80341503      -1.83811453
H       -3.01023273      -5.40240416      -3.26624076
H       -8.46365767      -5.89721872      -6.81704915
H       -7.92426916      -4.56493254      -7.86545837
H      -10.69141985      -2.20320201      -5.02773829
H      -12.99636680      -1.76134438      -5.77731717
H      -12.52801544      -4.65314743      -8.93816677
H      -10.24239384      -5.10761246      -8.21029314
C      -14.25367480      -2.91984090      -7.84780094
C      -15.38074866      -2.70238556      -8.21773836
Br     -17.20313176      -2.35077867      -8.81589587
C       -0.88140591       0.88140591       0.88140591
C       -0.41975858       1.29598308       2.12732537
C       -1.23734970       2.08757344       2.93820238
C       -2.51906602       2.46762082       2.50900110
C       -2.96315752       2.06149994       1.24412303
C       -2.14565902       1.26339721       0.43496225
C       -3.36373289       3.27088583       3.44615797
O       -2.86615105       3.68119555       4.49365973
C       -4.82394373       3.53456894       3.09088640
O       -5.59182404       3.74374027       4.27807889
C       -5.59776718       5.00871763       4.74791596
O       -5.17333614       6.00940892       4.19755746
C       -6.24964258       5.02032734       6.13823167
O       -7.38403839       4.62889282       6.35294070
O       -5.37946418       5.54522042       7.02781252
C       -5.82739965       5.52662769       8.38114957
C       -5.67691375       4.15520824       9.03712685
O       -5.26290174       3.17420635       8.42092001
C       -6.02812841       4.01685511      10.48459114
C       -5.85449743       2.76627654      11.09720524
C       -6.15584573       2.58940216      12.45077148
C       -6.63257593       3.66405015      13.19686258
C       -6.81183119       4.91149353      12.60164243
C       -6.51081362       5.08956205      11.24662231
H        0.56622065       1.00612783       2.48202285
H       -0.87054176       2.39827589       3.91600075
H       -3.93783859       2.34304106       0.85719368
H       -2.50564235       0.94143394      -0.53962170
H       -5.26127176       2.65899343       2.60593380
H       -4.88840238       4.38620824       2.40426704
H       -6.86779961       5.86542632       8.44469961
H       -5.19488206       6.23790318       8.92187483
H       -5.47980160       1.92000896      10.52254959
H       -6.01350853       1.61338335      12.90813647
H       -7.18444936       5.75175589      13.18312439
H       -6.66384660       6.07637701      10.82007583
C       -6.94157853       3.48753990      14.59219821
C       -7.20036821       3.33971256      15.76079181
Br      -7.61880923       3.10068826      17.65030881
C        0.88140591      -0.88140591       0.88140591
C        2.21558423      -1.08588016       0.54160263
C        3.01358761      -1.90811661       1.34142130
C        2.48277814      -2.53004537       2.48286443
C        1.14441480      -2.29885844       2.82550726
C        0.34408067      -1.47974360       2.02019422
C        3.37536414      -3.43941271       3.26599984
O        4.56661838      -3.50751525       2.96687270
C        2.77912356      -4.27672989       4.39354562
O        3.55820248      -5.45742803       4.59801270
C        4.61904328      -5.31550297       5.41985452
O        4.88953183      -4.36214284       6.12862785
C        5.48149996      -6.58369722       5.34300442
O        5.06336975      -7.69875577       5.60374638
O        6.73531484      -6.24152005       4.97566222
C        7.61832981      -7.34254339       4.77430371
C        7.40809369      -8.03317134       3.42798381
O        6.52416960      -7.68947854       2.64437997
C        8.32791628      -9.15088536       3.05077302
C        8.15899912      -9.76076580       1.79821430
C        9.00149682     -10.80050567       1.39401689
C       10.01681197     -11.23425758       2.24241911
C       10.19551253     -10.63935912       3.49009550
C        9.35245680      -9.59868078       3.89586039
H        2.64411244      -0.62026862      -0.34245103
H        4.05396254      -2.06985366       1.06100221
H        0.69019571      -2.74058481       3.70729281
H       -0.69788564      -1.31818608       2.28715415
H        1.78018978      -4.62470223       4.12130697
H        2.70490356      -3.67053382       5.30344027
H        7.52012774      -8.06639786       5.59139995
H        8.63164278      -6.92880943       4.79420787
H        7.36909706      -9.42689885       1.12636424
H        8.85595266     -11.25973045       0.41934524
H       10.98798240     -10.97735835       4.15398890
H        9.52418066      -9.16129499       4.87482380
C       10.88907140     -12.30294618       1.82929906
C       11.61958867     -13.19797288       1.48331102
Br      12.80077332     -14.64515535       0.92387763
