182
Properties=species:S:1:pos:R:3 pbc="F F F"
C        1.79160305       1.79160305      -1.79160305
C        1.20284441       2.66624051      -2.70418736
C        2.00766713       3.47108927      -3.51759158
C        3.40446393       3.40024541      -3.41766257
C        3.98288319       2.52111376      -2.48888457
C        3.17811029       1.71584049      -1.67840928
C        4.31711305       4.21962491      -4.26336207
O        5.51772280       4.29119298      -4.06044152
O        3.59404375       4.81657619      -5.28942902
C        4.11205890       5.57640916      -6.37809083
C        5.47911727       5.73327955      -6.60855815
C        5.91480852       6.42675168      -7.73701065
C        4.99145633       6.95819777      -8.63474167
C        3.62337808       6.82779659      -8.38332312
O        2.65507262       7.31439200      -9.29649068
C        2.83968887       8.49674498      -9.99838298
O        3.79964364       9.24948812      -9.94380908
C        1.66881654       8.75033644     -10.88154375
C        0.44834874       8.07660036     -10.73311229
C       -0.63050396       8.38536593     -11.56872740
C       -0.48961464       9.36277535     -12.55359113
Br      -1.95399631       9.78575882     -13.67156477
C        0.72018520      10.03455770     -12.71495044
C        1.79693880       9.73025932     -11.87785945
C        3.15718731       6.12958079      -7.25507852
C        1.69056038       5.92641512      -6.99974748
H        0.12073416       2.72845381      -2.79078124
H        1.52703200       4.14764926      -4.21916259
H        5.06616506       2.45523626      -2.39602905
H        3.64242085       1.03622412      -0.96794672
H        6.22977310       5.31921053      -5.94440822
H        6.97975476       6.54202151      -7.92350141
H        5.35843084       7.46566029      -9.52190926
H        0.31331987       7.31886678      -9.96583668
H       -1.57611101       7.86376963     -11.43927929
H        0.83508209      10.79772961     -13.48077471
H        2.73739363      10.26501422     -12.00416299
H        1.41611183       4.88678830      -7.20545588
H        1.06342007       6.57304786      -7.61970912
H        1.44673957       6.16388627      -5.95870840
C       -1.79160305      -1.79160305      -1.79160305
C       -2.97548192      -2.31983761      -1.27795276
C       -3.78257047      -3.13275054      -2.08102697
C       -3.40393144      -3.41777803      -3.40066245
C       -2.21369838      -2.87248570      -3.90669744
C       -1.40696413      -2.06243568      -3.10296025
C       -4.21110718      -4.28634665      -4.30264620
O       -3.98004590      -4.39384626      -5.49546514
O       -5.19013618      -4.94335841      -3.56655436
C       -6.08531334      -5.95024258      -4.03100297
C       -6.01386716      -6.49261173      -5.31447609
C       -6.87367266      -7.52910622      -5.67579198
C       -7.79835486      -8.02613966      -4.75990127
C       -7.88950802      -7.45832520      -3.48666456
O       -8.78510597      -7.96735441      -2.51349492
C      -10.04605744      -8.43587177      -2.85288763
O      -10.54556629      -8.48113344      -3.96624112
C      -10.75544324      -8.91134808      -1.63390540
C      -10.33073438      -8.59037726      -0.33694975
C      -11.06092999      -9.03374789       0.77108851
C      -12.21139247      -9.79971228       0.58435290
Br     -13.20194076     -10.38539901       2.08401249
C      -12.63981674     -10.13049230      -0.69938431
C      -11.91387925      -9.68426739      -1.80691094
C       -7.03152031      -6.41503146      -3.09529485
C       -7.07316537      -5.83267137      -1.71088625
H       -3.27812871      -2.10618340      -0.25565711
H       -4.70236142      -3.53067604      -1.66080639
H       -1.90571987      -3.08128835      -4.93042216
H       -0.48530676      -1.65248376      -3.50880118
H       -5.29624463      -6.14681928      -6.05032794
H       -6.81329176      -7.95959453      -6.67239138
H       -8.43372258      -8.85511325      -5.05716456
H       -9.44313740      -7.98627622      -0.16860971
H      -10.72848193      -8.77135241       1.77289643
H      -13.53628293     -10.72685385      -0.85044963
H      -12.25897332      -9.93965922      -2.80793829
H       -6.20227406      -6.16770267      -1.13837929
H       -7.97337651      -6.12146707      -1.16133347
H       -7.07516899      -4.73833173      -1.75583352
C       -1.79160305       1.79160305       1.79160305
C       -1.22953813       2.87035016       2.47338400
C       -2.03320299       3.67654696       3.28659802
C       -3.40201386       3.40241139       3.41794667
C       -3.95545067       2.31812292       2.71930793
C       -3.15137125       1.51196438       1.90902443
C       -4.30907041       4.21329831       4.27773131
O       -5.52228744       4.08885547       4.25821439
O       -3.55661124       5.05641955       5.08701817
C       -4.03536247       5.90067166       6.13052476
C       -5.36613170       5.90524670       6.54957658
C       -5.74853316       6.70198149       7.62805620
C       -4.80723017       7.48797258       8.28919303
C       -3.48245981       7.50613653       7.84590145
O       -2.48804279       8.25676518       8.52114732
C       -2.75941696       9.49870718       9.07669270
O       -3.82417647      10.09652077       9.07224361
C       -1.53428486      10.04411238       9.72229948
C       -0.25458248       9.52695816       9.47652075
C        0.86542301      10.10640574      10.08260664
C        0.70734703      11.19825278      10.93584610
Br       2.22477753      11.98600869      11.74209611
C       -0.55986194      11.71697190      11.19285950
C       -1.67871587      11.14194662      10.58439509
C       -3.06944861       6.70892360       6.76347440
C       -1.63736776       6.66863462       6.31072060
H       -0.16901804       3.09133818       2.37961300
H       -1.57435264       4.51372359       3.80576763
H       -5.01738890       2.09240772       2.80763376
H       -3.59497574       0.67261090       1.37900506
H       -6.12531379       5.29417097       6.07390709
H       -6.78317861       6.69985625       7.96224282
H       -5.12584790       8.07412942       9.14602308
H       -0.10730055       8.68340980       8.80731297
H        1.85490447       9.70384866       9.87799372
H       -0.68850097      12.56833811      11.85674733
H       -2.66565088      11.55757950      10.78334045
H       -1.17765469       5.72111035       6.60959098
H       -1.04154586       7.48354681       6.73108438
H       -1.57712833       6.77035101       5.22185490
C        1.79160305      -1.79160305       1.79160305
C        3.07610820      -2.12988407       1.36728002
C        3.88429505      -2.94225691       2.16979601
C        3.40588786      -3.41722603       3.39925803
C        2.11391142      -3.06187202       3.81709808
C        1.30647765      -2.25221250       3.01366991
C        4.21033377      -4.29609835       4.29366790
O        3.87020679      -4.56553529       5.43361521
O        5.33074539      -4.75699281       3.61231076
C        6.28389483      -5.71225160       4.07041247
C        6.14268920      -6.40512095       5.27314483
C        7.07511769      -7.38128426       5.62216890
C        8.14194873      -7.66886694       4.77358011
C        8.29858201      -6.95000389       3.58591189
O        9.34406291      -7.24578689       2.67610550
C       10.60872101      -7.61656107       3.10953476
O       10.99119127      -7.73903178       4.26271780
C       11.49201744      -7.86995688       1.93872240
C       11.17041752      -7.44595143       0.64169244
C       12.05894640      -7.67840871      -0.41376574
C       13.26510493      -8.33668330      -0.17503639
Br      14.46824082      -8.63685214      -1.60176568
C       13.59289798      -8.76844735       1.10834801
C       12.70829515      -8.53266700       2.16409542
C        7.37029140      -5.96342939       3.20812583
C        7.48792905      -5.22239614       1.90639780
H        3.45676277      -1.76802501       0.41518144
H        4.88301689      -3.19028818       1.82053878
H        1.72727574      -3.41966232       4.77049231
H        0.30600971      -1.99082023       3.34976175
H        5.31679440      -6.22430829       5.95228916
H        6.96172028      -7.92903040       6.55452699
H        8.83517900      -8.45601137       5.05481002
H       10.24084863      -6.92226508       0.43490961
H       11.80450909      -7.33706249      -1.41463367
H       14.53212627      -9.28154894       1.29991120
H       12.97448702      -8.86568538       3.16639843
H        6.72658822      -5.57737547       1.20439233
H        8.46807533      -5.34959750       1.43850423
H        7.35755284      -4.14657733       2.06520408
C       -0.00445707       0.01189536      -1.78238275
H       -0.66409135       0.67374010      -2.43557963
H        0.65740317      -0.63156657      -2.45157240
C       -0.90989263      -0.90692880      -0.91072765
C        0.90977584       0.90977584      -0.90977584
C       -0.00465871       1.77757030       0.00794375
H       -0.66225468       2.44313916      -0.64384735
H        0.64322798       2.43503045       0.67728295
C       -1.78241447       0.00034974      -0.00472694
H       -2.45427497      -0.65498947       0.64260836
H       -2.43311707       0.67328779      -0.65473579
C       -0.91132561       0.90220522       0.91563759
C       -0.01476271      -0.02253852       1.78660255
H       -0.67934791      -0.69751639       2.42135241
H        0.63392994       0.61504881       2.47327442
C        0.01484550      -1.77751727      -0.01636693
H        0.67870853      -2.42144646      -0.68295456
H       -0.62264859      -2.45592969       0.64226336
C        1.78714474       0.01002794       0.00389507
H        2.44202412       0.67113390       0.66197326
H        2.45385902      -0.65136977      -0.64189061
C        0.91606151      -0.90478549       0.90901405
