177
Properties=species:S:1:pos:R:3 pbc="F F F"
C        0.00000000       0.00000000       0.00000000
C        0.88160472       0.88160472      -0.88160472
C        0.86679689       0.71110622      -2.26584994
C        1.66558208       1.52288379      -3.07862174
C        2.47706108       2.50680884      -2.50135619
C        2.49612182       2.65816939      -1.10702608
C        1.69530018       1.84962165      -0.29728993
C        3.33445193       3.41079533      -3.31869120
O        4.31070771       3.94640551      -2.79391868
C        2.96109312       3.64812362      -4.78039431
O        3.49012718       4.88301920      -5.27123150
C        2.82791202       5.97387756      -4.81418378
O        1.79883270       5.96403741      -4.15690555
C        3.43247536       7.21217349      -5.34515501
C        2.53953419       8.10740637      -5.94093118
C        3.02620562       9.29986063      -6.44512119
N        4.34065812       9.61430616      -6.35593639
C        5.19863801       8.76487628      -5.76602386
C        6.53135587       9.14496489      -5.67750960
C        7.49279657       8.33993196      -5.06439082
C        7.11805846       7.12187705      -4.51938799
C        5.78637987       6.71768688      -4.59388854
C        4.80510867       7.52507779      -5.22711498
C        2.16477353      10.31344251      -7.08895800
C        1.03123026       9.96130043      -7.84647827
C        0.21801027      10.93528300      -8.43871819
C        0.52856232      12.28265591      -8.28462004
Br      -0.57125279      13.59807289      -9.07879914
C        1.64686816      12.66450033      -7.55152908
C        2.45646523      11.68586975      -6.96376030
H        0.23715577      -0.05023505      -2.72000143
H        1.64297328       1.35882511      -4.15230789
H        3.12757727       3.41663725      -0.64614630
H        1.71280754       1.98680224       0.78069624
H        1.87593194       3.62235010      -4.92750864
H        3.40532610       2.84357774      -5.37660144
H        1.48092131       7.87146149      -5.98202025
H        6.83058021      10.10460751      -6.09339509
H        8.52628660       8.67211786      -5.00910975
H        7.85265144       6.48733608      -4.03047753
H        5.52203367       5.76502165      -4.14050405
H        0.77177845       8.91630955      -8.00255799
H       -0.64896132      10.62932447      -9.01829206
H        1.90169834      13.71360166      -7.42843350
H        3.32886953      12.00250560      -6.39311453
C       -0.88160472      -0.88160472      -0.88160472
C       -1.08226682      -2.21945650      -0.54202973
C       -1.89694336      -3.02880669      -1.34133756
C       -2.51144391      -2.49395313      -2.47982908
C       -2.28923398      -1.15157169      -2.82051163
C       -1.47880761      -0.34390355      -2.01950060
C       -3.40245315      -3.30404966      -3.35743564
O       -3.57374873      -2.95259540      -4.52468777
C       -4.08115389      -4.53923086      -2.76922630
O       -5.26677697      -4.88869601      -3.48890489
C       -6.31299690      -4.06380031      -3.23917615
O       -6.34262747      -3.17856826      -2.39857993
C       -7.49687361      -4.47003794      -4.02289231
C       -8.67806016      -4.61922781      -3.29058378
C       -9.83568143      -4.97895371      -3.95655230
N       -9.84224878      -5.17137336      -5.29727854
C       -8.71293700      -5.00935021      -6.00725094
C       -8.77794590      -5.19378995      -7.38209452
C       -7.66350822      -5.02763441      -8.20597671
C       -6.44838415      -4.66357746      -7.64736190
C       -6.35677614      -4.47107491      -6.27010424
C       -7.48268145      -4.65059922      -5.42402078
C      -11.13466093      -5.15762620      -3.27488691
C      -11.22887733      -5.65079406      -1.95933757
C      -12.46729691      -5.80128967      -1.32342489
C      -13.63644669      -5.46232442      -1.99706717
Br     -15.30783884      -5.65982705      -1.13795336
C      -13.57970279      -4.98223674      -3.30095804
C      -12.33878945      -4.83596914      -3.93133669
H       -0.60906819      -2.63992391       0.34206996
H       -2.02481039      -4.07009346      -1.05920243
H       -2.75760742      -0.72580555      -3.70694784
H       -1.32548493       0.69730071      -2.29072933
H       -4.31554854      -4.40222789      -1.70801425
H       -3.38564506      -5.38083902      -2.85902121
H       -8.68114077      -4.43172065      -2.22154162
H       -9.73097265      -5.46890340      -7.82870677
H       -7.75273043      -5.17566631      -9.27911747
H       -5.57322681      -4.52126689      -8.27597135
H       -5.39353129      -4.16817226      -5.86585583
H      -10.33536596      -5.94339494      -1.41188509
H      -12.50482258      -6.18611368      -0.30771895
H      -14.48658064      -4.71874693      -3.83840593
H      -12.31255413      -4.45881201      -4.95312351
C       -0.88160472       0.88160472       0.88160472
C       -2.01969765       0.34267842       1.48137697
C       -2.82541163       1.14389221       2.29778377
C       -2.48682801       2.48506382       2.51333428
C       -1.34906775       3.02044464       1.89180491
C       -0.54365470       2.21836749       1.08018957
C       -3.29789617       3.37967042       3.38637186
O       -3.22922738       4.59795268       3.22385185
C       -4.17925178       2.74836509       4.46199418
O       -4.45512180       3.66150912       5.52774696
C       -3.40084471       3.85846594       6.35666271
O       -2.34302931       3.24912281       6.32762354
C       -3.74711139       4.82030581       7.42238666
C       -3.46360489       4.39947462       8.72479223
C       -3.74109083       5.25261017       9.77748645
N       -4.26419124       6.48349199       9.56321746
C       -4.51942401       6.89903118       8.31108295
C       -5.03193938       8.17870933       8.14318165
C       -5.30936822       8.70660126       6.88114986
C       -5.06677133       7.94117165       5.75138053
C       -4.55136373       6.65403798       5.89255358
C       -4.27860056       6.10539127       7.17330961
C       -3.47471211       4.90382929      11.18863264
C       -3.58612227       3.58462357      11.66826312
C       -3.31696247       3.26930832      13.00574068
C       -2.93335013       4.27315647      13.88933168
Br      -2.56455978       3.84790192      15.69315755
C       -2.82379588       5.58827784      13.45082386
C       -3.09604203       5.89687240      12.11318086
H       -2.28666934      -0.69882373       1.31907653
H       -3.71235930       0.70033320       2.74141378
H       -1.07865233       4.06398954       2.04771895
H        0.34088142       2.64509393       0.61470103
H       -3.73149359       1.83221767       4.86207941
H       -5.13795254       2.48638061       4.00117214
H       -3.01260444       3.42699603       8.89480258
H       -5.21452523       8.78916130       9.02489629
H       -5.70552185       9.71447087       6.78752149
H       -5.26875193       8.34072009       4.76099303
H       -4.35537379       6.08662737       4.98555822
H       -3.90268795       2.77983963      11.00811840
H       -3.41390172       2.24096767      13.34378582
H       -2.52951653       6.38116031      14.13305666
H       -3.00563584       6.93230561      11.78654820
C        0.88160472      -0.88160472       0.88160472
C        1.39433743      -2.07532215       0.37409346
C        2.21047850      -2.88182566       1.17478344
C        2.51317097      -2.48831466       2.48374048
C        1.97853510      -1.29395892       2.98882328
C        1.16711218      -0.48805154       2.18704804
C        3.39045116      -3.29846639       3.37502091
O        3.29606907      -3.16036796       4.59459488
C        4.38576280      -4.26585726       2.73799099
O        5.48303986      -4.55146647       3.60987154
C        6.37297021      -3.53384224       3.70916091
O        6.36486259      -2.50782747       3.04708560
C        7.46926031      -3.88722028       4.63332327
C        8.76021906      -3.69425403       4.13339866
C        9.84122563      -3.98379255       4.94616926
N        9.66624754      -4.43253401       6.21211912
C        8.42656405      -4.60021850       6.70275559
C        8.30093520      -5.03840417       8.01449099
C        7.05619541      -5.22207472       8.61884921
C        5.90119663      -4.95887267       7.89925421
C        5.99991966      -4.51676601       6.58126962
C        7.26200546      -4.33977636       5.95551962
C       11.24357951      -3.81003511       4.51355942
C       11.64676638      -4.01254632       3.17969627
C       12.97755155      -3.83045229       2.78400762
C       13.93097575      -3.44417293       3.72068960
Br      15.72606559      -3.19282136       3.18673230
C       13.56849412      -3.24588665       5.04851680
C       12.23703478      -3.43138683       5.43767367
H        1.16414997      -2.38520602      -0.64243385
H        2.58509643      -3.81204848       0.75696137
H        2.20263338      -0.98020121       4.00752623
H        0.76968485       0.44007583       2.58930452
H        4.75889279      -3.88629172       1.78060616
H        3.86430894      -5.21083412       2.55036223
H        8.90107472      -3.30214022       3.13118811
H        9.20336794      -5.23643350       8.58878137
H        6.99613420      -5.56174318       9.64963683
H        4.92439100      -5.08805495       8.35801910
H        5.07521529      -4.30187803       6.05046606
H       10.93005653      -4.33377042       2.42681904
H       13.25559702      -3.99648911       1.74656908
H       14.30548911      -2.94865129       5.78959310
H       11.97041838      -3.27211244       6.48195882
