109
Properties=species:S:1:pos:R:3 pbc="F F F"
C        0.00000000       0.00000000       0.00000000
C        0.88128592       0.88128592      -0.88128592
C        0.30631947       1.63469338      -1.90268314
C        1.11578491       2.44094645      -2.70928809
C        2.49799170       2.48639656      -2.50260298
S        3.50144847       3.53009988      -3.54044975
C        4.57897849       2.26630697      -4.29361670
C        5.54161660       2.87766113      -5.28138846
C        6.79090714       3.35419772      -4.85492025
C        7.68209219       3.92382223      -5.76708565
C        7.32520493       4.02607393      -7.10968724
C        6.08438122       3.56866438      -7.54794058
C        5.19357786       2.99910529      -6.63509230
C        3.06149507       1.73804494      -1.46323810
C        2.25523871       0.93113290      -0.65556661
H       -0.76650860       1.60698251      -2.07765419
H        0.65618851       3.03050921      -3.49964817
H        3.95989146       1.51406983      -4.79632365
H        5.14475548       1.74338921      -3.51433493
H        7.07588064       3.28799922      -3.80688329
H        8.64609607       4.28655539      -5.42006177
H        5.79984368       3.65376702      -8.59325485
H        4.22362433       2.65324006      -6.98641336
H        4.12911260       1.78378317      -1.26243498
H        2.70696531       0.35452643       0.14735365
C        8.24454835       4.61156060      -8.05075741
C        9.01449845       5.10190569      -8.83890367
Br      10.25944266       5.89475222     -10.11326951
C       -0.88128592      -0.88128592      -0.88128592
C       -0.47850315      -1.18508738      -2.18010547
C       -1.28784565      -1.99220467      -2.98596912
C       -2.50193124      -2.48618449      -2.49887551
S       -3.50650329      -3.51938317      -3.54611163
C       -5.01107475      -2.49280463      -3.63502277
C       -6.05944236      -3.12328858      -4.51793524
C       -6.98931888      -4.02801595      -3.98269029
C       -7.95838479      -4.61560365      -4.79901162
C       -7.99782714      -4.30645494      -6.15668402
C       -7.07501350      -3.41936383      -6.70660885
C       -6.10608740      -2.83210127      -5.88958678
C       -2.88765753      -2.18772653      -1.18739405
C       -2.08113212      -1.38117631      -0.37962979
H        0.46125247      -0.80546326      -2.57391730
H       -0.96105326      -2.22908838      -3.99620425
H       -4.75089388      -1.49972790      -4.01966318
H       -5.42495693      -2.34656235      -2.63096033
H       -6.96142934      -4.28387254      -2.92546127
H       -8.67176116      -5.31309949      -4.36785259
H       -7.09829272      -3.18181547      -7.76675736
H       -5.38467902      -2.14758110      -6.33101763
H       -3.81096770      -2.58834131      -0.77602173
H       -2.39403300      -1.15682860       0.63672352
C       -8.99801312      -4.91060416      -6.99824907
C       -9.83566888      -5.41657914      -7.70305979
Br     -11.19008740      -6.23469787      -8.84267912
C       -0.88128592       0.88128592       0.88128592
C       -2.15457970       1.24298416       0.44613213
C       -2.96003879       2.05101910       1.25496157
C       -2.49045007       2.50529481       2.49124635
S       -3.54343015       3.52546524       3.50310271
C       -2.51651494       5.02977121       3.59261601
C       -3.19759818       6.11803826       4.38502974
C       -3.02559465       6.19887214       5.77555833
C       -3.65810933       7.20336467       6.51152607
C       -4.47175139       8.12816958       5.86104514
C       -4.66265653       8.05539636       4.48293329
C       -4.02976638       7.05049119       3.74751788
C       -1.21646737       2.12178330       2.92452745
C       -0.40900817       1.31454114       2.11838892
H       -2.53211530       0.90027733      -0.51426453
H       -3.95517909       2.32214043       0.90902636
H       -2.30597994       5.38665381       2.57765120
H       -1.55049959       4.79723163       4.05474840
H       -2.39992902       5.47586933       6.29496480
H       -3.51291353       7.25224711       7.58755259
H       -5.30270925       8.77069690       3.97345940
H       -4.19280416       6.99741400       2.67305960
H       -0.84356350       2.43514505       3.89662219
H        0.57879237       1.02543087       2.46749958
C       -5.12250723       9.16510663       6.61925250
C       -5.66751524      10.03354140       7.25425117
Br      -6.54874710      11.43772698       8.28099030
C        0.88128592      -0.88128592       0.88128592
C        2.05224864      -1.42952649       0.36192086
C        2.85782966      -2.23718414       1.17100564
C        2.48901517      -2.50503567       2.49294040
S        3.54064934      -3.52982609       3.50152267
C        2.38160220      -4.88911806       3.86818190
C        3.03359634      -5.96107609       4.70599376
C        3.01491003      -5.87823676       6.10687833
C        3.62105136      -6.86765061       6.88429810
C        4.25524423      -7.94166390       6.26405798
C        4.29320258      -8.03336009       4.87442351
C        3.68679607      -7.04343866       4.09754072
C        1.31939960      -1.93535580       3.00802272
C        0.51206965      -1.12797525       2.20189332
H        2.35029854      -1.23298188      -0.66515233
H        3.77351184      -2.65483597       0.75799807
H        2.02041261      -5.32193335       2.92793898
H        1.50406489      -4.50098260       4.39743212
H        2.53065844      -5.03866413       6.60144058
H        3.59604616      -6.78865377       7.96801330
H        4.79360122      -8.86595223       4.38731210
H        3.73004144      -7.12017711       3.01305920
H        1.03028573      -2.10223453       4.04281048
H       -0.39414645      -0.69306512       2.61521942
C        4.87862523      -8.96294155       7.06529958
C        5.40070682      -9.81826157       7.73633942
Br       6.24486859     -11.20124172       8.82135409
