142
Properties=species:S:1:pos:R:3 pbc="F F F"
C        1.79153097       1.79153097      -1.79153097
C        3.12506317       1.44325791      -2.00539518
C        3.93251739       2.23989804      -2.82398664
C        3.39970895       3.38495032      -3.42938407
C        2.06269521       3.73514025      -3.19186893
C        1.25743300       2.93676207      -2.37703037
C        4.20040639       4.24757125      -4.34531930
O        3.82819121       5.40074150      -4.55836144
C        5.43175122       3.64688727      -5.00592978
O        5.69827118       4.37754968      -6.20830640
C        6.96373429       4.80620095      -6.39515168
O        7.92255575       4.58032732      -5.67119562
C        7.08553451       5.53910452      -7.67806560
C        5.95179859       5.99324397      -8.36803040
C        6.10170176       6.64263493      -9.59418249
Br       4.57102284       7.24325762     -10.52843560
C        7.36727738       6.84768489     -10.14187422
C        8.49790254       6.41205440      -9.45040002
C        8.35809967       5.76875865      -8.22205256
O        9.52193671       5.38353106      -7.61043431
H        3.54354196       0.55372554      -1.53984345
H        4.97047143       1.94961293      -2.96236440
H        1.63931908       4.62800235      -3.65042041
H        0.22002103       3.21593175      -2.21179875
H        5.22908268       2.61353236      -5.30223066
H        6.25971671       3.67885695      -4.29013597
H        4.95601713       5.84805945      -7.95568297
H        7.48508064       7.34710227     -11.10028443
H        9.48873622       6.57368193      -9.86781297
H        9.30985272       5.02971364      -6.71865865
C       -1.79153097      -1.79153097      -1.79153097
C       -1.29199121      -2.99658151      -2.28514355
C       -2.10084969      -3.81441366      -3.08113873
C       -3.41203872      -3.42271707      -3.37928756
C       -3.89688611      -2.20007757      -2.89274071
C       -3.08894117      -1.38668963      -2.09559465
C       -4.33347161      -4.27336773      -4.18645762
O       -5.31431168      -3.75478017      -4.71820230
C       -4.03484443      -5.76127105      -4.28845279
O       -5.25819487      -6.44626630      -4.57966609
C       -5.23642151      -7.32915147      -5.59951395
O       -4.26082676      -7.65118101      -6.26207092
C       -6.56689201      -7.95850814      -5.77730448
C       -7.71529876      -7.41446323      -5.18331098
C       -8.94462367      -8.05694589      -5.33694964
Br     -10.48941555      -7.32821758      -4.52508294
C       -9.04577286      -9.23427113      -6.07679250
C       -7.90861734      -9.76904078      -6.68269884
C       -6.67810036      -9.13046880      -6.54034171
O       -5.61821529      -9.72127086      -7.17641593
H       -0.27530411      -3.30705867      -2.05474817
H       -1.68009497      -4.74155050      -3.46080328
H       -4.91218996      -1.88069999      -3.12485188
H       -3.48340708      -0.44720702      -1.71713744
H       -3.68355874      -6.13793282      -3.32335414
H       -3.26590165      -5.90896416      -5.05384383
H       -7.65895394      -6.49413969      -4.60666592
H      -10.00146018      -9.73961718      -6.19138998
H       -7.98028782     -10.68346749      -7.26647581
H       -4.83057674      -9.14071147      -7.08693680
C       -1.79153097       1.79153097       1.79153097
C       -3.03153479       1.32003915       2.22214232
C       -3.83622125       2.11834899       3.04183184
C       -3.39422143       3.38917265       3.43064927
C       -2.15384377       3.85978623       2.97607439
C       -1.35063725       3.06001127       2.16057692
C       -4.18961848       4.26626780       4.33741067
O       -3.95306708       5.47342520       4.36080187
C       -5.24241176       3.61849053       5.22366598
O       -5.46068480       4.46732402       6.35611843
C       -6.74122413       4.76464460       6.65921820
O       -7.73979048       4.33193062       6.10235759
C       -6.80789663       5.64359434       7.85121366
C       -5.67190027       6.31699506       8.32417764
C       -5.76171573       7.10283723       9.47396623
Br      -4.22598280       8.00005565      10.11667762
C       -6.96971174       7.22859791      10.15852684
C       -8.10531097       6.57357258       9.68147341
C       -8.02651071       5.79223930       8.53016087
O       -9.19211929       5.19360246       8.13018034
H       -3.37883415       0.33289968       1.92537712
H       -4.80211654       1.72869564       3.35163658
H       -1.80300014       4.84984042       3.26490126
H       -0.38695548       3.43505878       1.82573728
H       -4.86925956       2.66552350       5.61006264
H       -6.14588733       3.45601848       4.62680383
H       -4.72139641       6.23643232       7.80193082
H       -7.03944046       7.83472808      11.05829880
H       -9.05255610       6.67157791      10.20609711
H       -9.04130665       4.75081025       7.26610810
C        1.79153097      -1.79153097       1.79153097
C        1.26599785      -2.95546750       2.35225091
C        2.07399079      -3.77378366       3.14862763
C        3.41030611      -3.42396841       3.37976882
C        3.92213540      -2.24160504       2.82596396
C        3.11483615      -1.42780750       2.02858179
C        4.32987711      -4.27915350       4.18426634
O        5.35068118      -3.78029540       4.65631757
C        3.97821782      -5.74875567       4.35759478
O        5.18486641      -6.47068107       4.62857977
C        5.17002271      -7.31182509       5.68323914
O        4.21017069      -7.56840399       6.39550401
C        6.48120967      -7.98690483       5.83459013
C        7.62496113      -7.51296340       5.17514844
C        8.83367948      -8.19800971       5.30683001
Br      10.37157166      -7.56407452       4.40706989
C        8.91888836      -9.34892594       6.08902219
C        7.78720950      -9.81359855       6.75954891
C        6.57760394      -9.13197202       6.63933492
O        5.52212057      -9.65453387       7.33924764
H        0.22959805      -3.23342912       2.17408378
H        1.63328991      -4.66782562       3.58133323
H        4.95756782      -1.95463476       3.00553925
H        3.52981591      -0.52033344       1.59760219
H        3.57402484      -6.14804529       3.42277557
H        3.23558676      -5.83561269       5.15751019
H        7.58110976      -6.61413363       4.56451616
H        9.85813347      -9.88753963       6.18679424
H        7.84687816     -10.70688187       7.37647109
H        4.75458549      -9.04662059       7.25701892
C       -0.00445707       0.01189536      -1.78238275
H       -0.66409135       0.67374010      -2.43557963
H        0.65740317      -0.63156657      -2.45157240
C       -0.90989263      -0.90692880      -0.91072765
C        0.90977584       0.90977584      -0.90977584
C       -0.00465871       1.77757030       0.00794375
H       -0.66225468       2.44313916      -0.64384735
H        0.64322798       2.43503045       0.67728295
C       -1.78241447       0.00034974      -0.00472694
H       -2.45427497      -0.65498947       0.64260836
H       -2.43311707       0.67328779      -0.65473579
C       -0.91132561       0.90220522       0.91563759
C       -0.01476271      -0.02253852       1.78660255
H       -0.67934791      -0.69751639       2.42135241
H        0.63392994       0.61504881       2.47327442
C        0.01484550      -1.77751727      -0.01636693
H        0.67870853      -2.42144646      -0.68295456
H       -0.62264859      -2.45592969       0.64226336
C        1.78714474       0.01002794       0.00389507
H        2.44202412       0.67113390       0.66197326
H        2.45385902      -0.65136977      -0.64189061
C        0.91606151      -0.90478549       0.90901405
