150
Properties=species:S:1:pos:R:3 pbc="F F F"
C        1.79153097       1.79153097      -1.79153097
C        3.12506317       1.44325791      -2.00539518
C        3.93251739       2.23989804      -2.82398664
C        3.39970895       3.38495032      -3.42938407
C        2.06269521       3.73514025      -3.19186893
C        1.25743300       2.93676207      -2.37703037
C        4.20040639       4.24757125      -4.34531930
O        3.82819121       5.40074150      -4.55836144
C        5.43175122       3.64688727      -5.00592978
O        5.69827118       4.37754968      -6.20830640
C        6.96373429       4.80620095      -6.39515168
O        7.92255575       4.58032732      -5.67119562
C        7.08553451       5.53910452      -7.67806560
C        5.95179859       5.99324397      -8.36803040
C        6.10170176       6.64263493      -9.59418249
C        7.36727738       6.84768489     -10.14187422
C        8.49790254       6.41205440      -9.45040002
C        8.35809967       5.76875865      -8.22205256
O        9.52193671       5.38353106      -7.61043431
H        3.54354196       0.55372554      -1.53984345
H        4.97047143       1.94961293      -2.96236440
H        1.63931908       4.62800235      -3.65042041
H        0.22002103       3.21593175      -2.21179875
H        5.22908268       2.61353236      -5.30223066
H        6.25971671       3.67885695      -4.29013597
H        4.95601713       5.84805945      -7.95568297
H        7.48508064       7.34710227     -11.10028443
H        9.48873622       6.57368193      -9.86781297
H        9.30985272       5.02971364      -6.71865865
C        4.93619668       7.09996716     -10.30555098
C        3.96008617       7.48298290     -10.90132209
Br       2.38179803       8.10228696     -11.86463358
C       -1.79153097      -1.79153097      -1.79153097
C       -1.20843397      -2.77533244      -2.58994984
C       -2.01326079      -3.59497937      -3.38816191
C       -3.40377793      -3.42774951      -3.38251591
C       -3.97697929      -2.42287373      -2.58985137
C       -3.17207468      -1.60789152      -1.79125924
C       -4.31418313      -4.29961357      -4.17950026
O       -5.45280495      -3.90573094      -4.42875826
C       -3.80086759      -5.66107898      -4.62262170
O       -4.92782076      -6.51780731      -4.83849918
C       -4.96385407      -7.19853207      -6.00270079
O       -4.09977879      -7.20685961      -6.86744030
C       -6.18094724      -8.04145119      -6.08030619
C       -7.26216220      -7.84163867      -5.20927210
C       -8.37457606      -8.68113649      -5.28280663
C       -8.42529046      -9.71685528      -6.21469074
C       -7.35883861      -9.90797824      -7.09354011
C       -6.24686872      -9.07016413      -7.03187803
O       -5.25183364      -9.32579557      -7.93827287
H       -0.12927966      -2.91140128      -2.59643001
H       -1.52943005      -4.34467977      -4.00833894
H       -5.05660361      -2.27764850      -2.58348971
H       -3.63277921      -0.84084515      -1.17412717
H       -3.20783408      -6.11419503      -3.82281659
H       -3.18557829      -5.52506119      -5.51807016
H       -7.24481018      -7.03624218      -4.47870719
H       -9.28816128     -10.37596125      -6.26834482
H       -7.39338472     -10.70954553      -7.82730087
H       -4.56869828      -8.62324796      -7.86627876
C       -9.47967506      -8.48037096      -4.38166880
C      -10.40519547      -8.31222982      -3.62696586
Br     -11.90168370      -8.04035983      -2.40667504
C       -1.79153097       1.79153097       1.79153097
C       -3.04123274       1.32903098       2.20345254
C       -3.84615311       2.12717868       3.02307028
C       -3.39467609       3.38877774       3.43058951
C       -2.14434703       3.85065568       2.99470168
C       -1.34096834       3.05101376       2.17924334
C       -4.19040852       4.26465403       4.33823440
O       -3.94103557       5.46881708       4.37744150
C       -5.25983743       3.61888762       5.20584322
O       -5.48129877       4.45772041       6.34510807
C       -6.76178435       4.76577055       6.63753203
O       -7.75881741       4.35011493       6.06514635
C       -6.83198981       5.63240548       7.83830933
C       -5.69400901       6.28812154       8.33094241
C       -5.78790230       7.06237229       9.48824460
C       -7.00190299       7.19394506      10.16098843
C       -8.13924231       6.55664225       9.66447240
C       -8.05629723       5.78703731       8.50557634
O       -9.22387608       5.20560885       8.08641715
H       -3.39595095       0.34904338       1.89211663
H       -4.81956445       1.74481028       3.31807403
H       -1.78596620       4.83360494       3.29817069
H       -0.36965404       3.41907417       1.85902332
H       -4.90131766       2.65774303       5.58578502
H       -6.15841786       3.47283226       4.59745952
H       -4.73876070       6.20280540       7.81819346
H       -7.07491881       7.79099926      11.06654927
H       -9.09106900       6.65933733      10.17982479
H       -9.06840446       4.77059554       7.21922501
C       -4.61664261       7.72731125       9.99776096
C       -3.63571262       8.28419763      10.42448091
Br      -2.04963179       9.18463580      11.11445098
C        1.79153097      -1.79153097       1.79153097
C        1.21131704      -2.79449428       2.56790494
C        2.01644463      -3.61404509       3.36591235
C        3.40441121      -3.42744518       3.38218695
C        3.97435449      -2.40363031       2.61171959
C        3.16922014      -1.58873903       1.81326627
C        4.31584942      -4.29771843       4.17972910
O        5.44523370      -3.89160279       4.45045765
C        3.81566280      -5.67229503       4.59661044
O        4.95146859      -6.51623713       4.81642153
C        4.98090957      -7.21273411       5.97144325
O        4.10510409      -7.24525375       6.82372085
C        6.20856459      -8.03966851       6.05447153
C        7.29885621      -7.81259521       5.20162154
C        8.42186078      -8.63750629       5.27915213
C        8.47421105      -9.68544985       6.19717559
C        7.39844857      -9.90374026       7.05816812
C        6.27574663      -9.08067372       6.99249053
O        5.27191323      -9.36285572       7.88113313
H        0.13420157      -2.94562418       2.55728520
H        1.53465541      -4.37906189       3.96873146
H        5.05180919      -2.24334094       2.62259169
H        3.62760092      -0.80674393       1.21340668
H        3.24024534      -6.12229228       3.78230808
H        3.18613368      -5.55747314       5.48510282
H        7.28030995      -6.99730226       4.48214734
H        9.34545557     -10.33319200       6.25381978
H        7.43408718     -10.71501087       7.78113307
H        4.58001163      -8.66892430       7.80928908
C        9.53643668      -8.40872403       4.39655411
C       10.46989399      -8.21711889       3.65737828
Br      11.97921551      -7.90730958       2.46219347
C       -0.00445707       0.01189536      -1.78238275
H       -0.66409135       0.67374010      -2.43557963
H        0.65740317      -0.63156657      -2.45157240
C       -0.90989263      -0.90692880      -0.91072765
C        0.90977584       0.90977584      -0.90977584
C       -0.00465871       1.77757030       0.00794375
H       -0.66225468       2.44313916      -0.64384735
H        0.64322798       2.43503045       0.67728295
C       -1.78241447       0.00034974      -0.00472694
H       -2.45427497      -0.65498947       0.64260836
H       -2.43311707       0.67328779      -0.65473579
C       -0.91132561       0.90220522       0.91563759
C       -0.01476271      -0.02253852       1.78660255
H       -0.67934791      -0.69751639       2.42135241
H        0.63392994       0.61504881       2.47327442
C        0.01484550      -1.77751727      -0.01636693
H        0.67870853      -2.42144646      -0.68295456
H       -0.62264859      -2.45592969       0.64226336
C        1.78714474       0.01002794       0.00389507
H        2.44202412       0.67113390       0.66197326
H        2.45385902      -0.65136977      -0.64189061
C        0.91606151      -0.90478549       0.90901405
