138
Properties=species:S:1:pos:R:3 pbc="F F F"
C        1.79183200       1.79183200      -1.79183200
C        2.06252702       1.40788251      -3.10321468
C        2.86319107       2.21947424      -3.91067672
C        3.39963335       3.41649342      -3.41138824
C        3.12047246       3.78550537      -2.08766011
C        2.31664224       2.97654278      -1.28029087
C        4.24906343       4.29529364      -4.29590228
O        5.48933481       3.63275077      -4.57539305
C        5.69438942       3.26820409      -5.86309122
O        4.93075274       3.45085582      -6.79594723
C        6.99718044       2.56285625      -6.00434472
C        7.28609148       1.95352413      -7.23490270
C        8.48950159       1.27044660      -7.42016394
C        9.41380374       1.19661396      -6.37893304
C        9.13095045       1.80784467      -5.15752671
C        7.92949467       2.48980949      -4.96133760
H        1.65519436       0.48495937      -3.50711925
H        3.06334892       1.91581823      -4.93720207
H        3.52307958       4.70791377      -1.67526400
H        2.10583329       3.27965882      -0.25793191
H        4.49778844       5.22968278      -3.77992033
H        3.68496843       4.57476612      -5.19365234
H        6.57070470       2.00558873      -8.05442995
H        8.70449810       0.79649141      -8.37484389
H       10.34940015       0.66270599      -6.52894618
H        7.72715965       2.95935884      -4.00255309
C       10.09076450       1.73338955      -4.08663296
C       10.89460876       1.67103339      -3.18975944
Br      12.19435695       1.57020875      -1.73959081
C       -1.79183200      -1.79183200      -1.79183200
C       -1.28622723      -2.98533303      -2.30206395
C       -2.09672589      -3.79428847      -3.10232767
C       -3.41464327      -3.41366750      -3.39920423
C       -3.90593893      -2.20693373      -2.88076529
C       -3.09753446      -1.39886988      -2.07707154
C       -4.28833266      -4.30186534      -4.25006135
O       -3.78730989      -4.31693942      -5.59322932
C       -3.29401632      -5.49859295      -6.03307547
O       -3.23883380      -6.53902820      -5.39969379
C       -2.77820240      -5.36369006      -7.42248894
C       -2.06479632      -6.44204552      -7.96767647
C       -1.55033301      -6.36644652      -9.26333261
C       -1.75012415      -5.21519813     -10.02402845
C       -2.46511059      -4.14531444      -9.48589681
C       -2.98018634      -4.20978179      -8.19067362
H       -0.26857498      -3.29656016      -2.08213784
H       -1.69615415      -4.72959262      -3.49062246
H       -4.92348053      -1.88791583      -3.09486099
H       -3.49545272      -0.46894656      -1.67902474
H       -5.30809929      -3.90296658      -4.29632569
H       -4.36231382      -5.29650769      -3.79456537
H       -1.90341967      -7.34569957      -7.38160413
H       -0.99429901      -7.20404496      -9.67748943
H       -1.34658889      -5.16186323     -11.03260021
H       -3.53431638      -3.36586702      -7.78888819
C       -2.67341191      -2.96030297     -10.27707213
C       -2.84786427      -1.96785587     -10.93968146
Br      -3.12993898      -0.36315284     -12.01106470
C       -1.79183200       1.79183200       1.79183200
C       -3.16346011       1.85341066       1.55675344
C       -3.96953337       2.65473203       2.36907662
C       -3.40922544       3.40049908       3.41779048
C       -2.02607204       3.33004810       3.63751780
C       -1.21936055       2.52594974       2.82816560
C       -4.28974037       4.24972492       4.30079408
O       -4.80752285       5.34940134       3.54055444
C       -6.14483200       5.35173867       3.32911407
O       -6.93986484       4.51515795       3.72253300
C       -6.53990647       6.52345243       2.50102251
C       -7.86083625       6.58243950       2.03124256
C       -8.28338467       7.65415250       1.24257496
C       -7.39031951       8.67603788       0.92299335
C       -6.07897991       8.62219238       1.39514956
C       -5.64606736       7.55353568       2.18103872
H       -3.61494639       1.28236464       0.74996195
H       -5.04202004       2.69097007       2.18337911
H       -1.56566030       3.89737043       4.44322662
H       -0.14962008       2.47866917       3.01513476
H       -3.70550186       4.67934190       5.12254780
H       -5.06542852       3.62652297       4.76143540
H       -8.56606621       5.78925066       2.27540652
H       -9.30710324       7.69075298       0.87797718
H       -7.72505146       9.50816589       0.30783498
H       -4.62051076       7.52929084       2.53926999
C       -5.16152096       9.68242118       1.06684487
C       -4.39314909      10.57036280       0.79188970
Br      -3.15075677      12.00608930       0.34731044
C        1.79183200      -1.79183200       1.79183200
C        2.90237790      -2.42861135       1.24263495
C        3.71208108      -3.22881278       2.05244817
C        3.41478780      -3.39921555       3.41351165
C        2.29056246      -2.75427851       3.94879698
C        1.48215656      -1.95058465       3.14073469
C        4.30455222      -4.25133137       4.28437577
O        4.18354816      -5.62425547       3.88967501
C        5.28835430      -6.18923560       3.34809483
O        6.36434417      -5.64442668       3.16878494
C        5.01373042      -7.59753467       2.95311632
C        5.99107857      -8.27511119       2.20832855
C        5.78229822      -9.59470283       1.80311108
C        4.59818807     -10.24703680       2.14412586
C        3.62887736      -9.57702177       2.89042271
C        3.82660543      -8.25694971       3.29708662
H        3.14849181      -2.30764033       0.19114084
H        4.58287216      -3.71665749       1.61683957
H        2.03711420      -2.86885350       5.00028965
H        0.61721342      -1.45365360       3.57255699
H        3.98396627      -4.19264378       5.33078151
H        5.33222037      -3.87051074       4.25065578
H        6.91937641      -7.77436226       1.93698471
H        6.54196449     -10.11188127       1.22198764
H        4.44091168     -11.27489106       1.82524959
H        3.05961702      -7.75171840       3.87773616
C        2.40965684     -10.25641965       3.24471052
C        1.38855966     -10.82541537       3.54142656
Br      -0.26246813     -11.74543333       4.02119131
C       -0.00445707       0.01189536      -1.78238275
H       -0.66409135       0.67374010      -2.43557963
H        0.65740317      -0.63156657      -2.45157240
C       -0.90989263      -0.90692880      -0.91072765
C        0.90977584       0.90977584      -0.90977584
C       -0.00465871       1.77757030       0.00794375
H       -0.66225468       2.44313916      -0.64384735
H        0.64322798       2.43503045       0.67728295
C       -1.78241447       0.00034974      -0.00472694
H       -2.45427497      -0.65498947       0.64260836
H       -2.43311707       0.67328779      -0.65473579
C       -0.91132561       0.90220522       0.91563759
C       -0.01476271      -0.02253852       1.78660255
H       -0.67934791      -0.69751639       2.42135241
H        0.63392994       0.61504881       2.47327442
C        0.01484550      -1.77751727      -0.01636693
H        0.67870853      -2.42144646      -0.68295456
H       -0.62264859      -2.45592969       0.64226336
C        1.78714474       0.01002794       0.00389507
H        2.44202412       0.67113390       0.66197326
H        2.45385902      -0.65136977      -0.64189061
C        0.91606151      -0.90478549       0.90901405
