117
Properties=species:S:1:pos:R:3 pbc="F F F"
C        0.00000000       0.00000000       0.00000000
C        0.88192797       0.88192797      -0.88192797
C        1.15262300       0.49797848      -2.19331065
C        1.95328704       1.30957022      -3.00077270
C        2.48972932       2.50658939      -2.50148421
C        2.21056843       2.87560135      -1.17775609
C        1.40673821       2.06663876      -0.37038685
C        3.33915941       3.38538962      -3.38599826
O        4.57943079       2.72284674      -3.66548903
C        4.78448540       2.35830007      -4.95318720
O        4.02084871       2.54095180      -5.88604321
C        6.08727642       1.65295222      -5.09444069
C        6.37618745       1.04362011      -6.32499868
C        7.57959756       0.36054258      -6.51025992
C        8.50389971       0.28670994      -5.46902902
C        8.22104643       0.89794065      -4.24762269
C        7.01959065       1.57990547      -4.05143357
H        0.74529034      -0.42494466      -2.59721523
H        2.15344490       1.00591421      -4.02729804
H        2.61317556       3.79800974      -0.76535998
H        1.19592926       2.36975480       0.65197211
H        3.58788442       4.31977876      -2.87001631
H        2.77506440       3.66486210      -4.28374832
H        5.66080068       1.09568470      -7.14452592
H        7.79459408      -0.11341262      -7.46493987
H        9.43949613      -0.24719803      -5.61904216
H        6.81725562       2.04945482      -3.09264907
C        9.18086048       0.82348553      -3.17672893
C        9.98470474       0.76112936      -2.27985542
Br      11.28445293       0.66030472      -0.82968679
C       -0.88192797      -0.88192797      -0.88192797
C       -1.27756519      -0.42821943      -2.13812751
C       -2.07797494      -1.23927394      -2.94638108
C       -2.48943294      -2.50567136      -2.50269863
C       -2.08549155      -2.94475022      -1.23368411
C       -1.28175452      -2.13606432      -0.42594497
C       -3.33945347      -3.38184396      -3.38924986
O       -4.64089622      -2.79715067      -3.52971967
C       -4.96808446      -2.35943490      -4.76845330
O       -4.26636507      -2.41756903      -5.76390963
C       -6.32425118      -1.74663591      -4.76378224
C       -6.74775088      -1.07582425      -5.92123111
C       -8.00683616      -0.47454778      -5.96901612
C       -8.85248643      -0.54445272      -4.86269951
C       -8.43557172      -1.21696747      -3.71407058
C       -7.17768064      -1.81805466      -3.65519439
H       -0.96799938       0.54905399      -2.49861552
H       -2.37621691      -0.88013924      -3.93030100
H       -2.38975001      -3.92175146      -0.86504381
H       -0.97327229      -2.49356159       0.55312193
H       -3.48196306      -4.36639524      -2.92932119
H       -2.82672891      -3.55387023      -4.34307567
H       -6.09462989      -1.01570642      -6.79067500
H       -8.32638356       0.04779013      -6.86752790
H       -9.83202132      -0.07373552      -4.90558342
H       -6.87072602      -2.33725867      -2.75137482
C       -9.31433973      -1.29103240      -2.57570281
C      -10.05030794      -1.35306177      -1.62231981
Br     -11.24030628      -1.45335803      -0.08078013
C       -0.88192797       0.88192797       0.88192797
C       -1.82280094       1.72542812       0.29568307
C       -2.63365750       2.52577430       1.10419816
C       -2.50657532       2.48972324       2.50150437
C       -1.55132969       1.63800146       3.07459473
C       -0.74240613       0.83418811       2.26716958
C       -3.39827175       3.34472918       3.36754636
O       -3.06094738       4.72561323       3.18120595
C       -4.00581708       5.49681192       2.59334366
O       -5.10473154       5.12933398       2.21377820
C       -3.51315018       6.89155847       2.42996069
C       -4.29146780       7.78043885       1.67289959
C       -3.87278083       9.09816184       1.47945739
C       -2.67672186       9.53725408       2.04566272
C       -1.90560806       8.65672523       2.80427648
C       -2.31368134       7.33684869       3.00039966
H       -1.93586565       1.76601899      -0.78432373
H       -3.37210025       3.17649782       0.63805909
H       -1.43181862       1.59012044       4.15460622
H       -0.01028618       0.17578071       2.72764506
H       -3.23280270       3.11791544       4.42696134
H       -4.44988325       3.11447904       3.15931252
H       -5.22731052       7.44716565       1.22653513
H       -4.47857935       9.78000465       0.88753733
H       -2.35541378      10.56477097       1.89115551
H       -1.69918640       6.66581228       3.59436084
C       -0.67359067       9.11605138       3.39143288
C        0.35822389       9.50073704       3.88317637
Br       2.02658077      10.12274121       4.67828399
C        0.88192797      -0.88192797       0.88192797
C        2.26611447      -0.84863343       0.72916423
C        3.07152821      -1.65035964       1.54174211
C        2.49828029      -2.49115788       2.50836476
C        1.10295636      -2.51533322       2.64563629
C        0.29656108      -1.71106161       1.83614113
C        3.37670967      -3.34065172       3.39318589
O        4.00518339      -4.35896304       2.60362013
C        5.35012208      -4.27011168       2.47573890
O        6.06742271      -3.41455464       2.96586637
C        5.86476171      -5.36315443       1.60675319
C        7.21197463      -5.31568337       1.21714823
C        7.74548582      -6.30992955       0.39498469
C        6.93768947      -7.36041957      -0.03847037
C        5.60021200      -7.41260101       0.35379676
C        5.05672606      -6.42183278       1.17237085
H        2.72764788      -0.20327590      -0.01336286
H        4.15320598      -1.61234180       1.42110937
H        0.63236222      -3.15743450       3.38674856
H       -0.78313947      -1.73799558       1.95885583
H        2.77326280      -3.85377162       4.15064508
H        4.08404338      -2.70299600       3.93663543
H        7.85120253      -4.49934762       1.55046115
H        8.78903888      -6.26402606       0.09305638
H        7.35871740      -8.13183712      -0.67921427
H        4.01247949      -6.47975951       1.46712051
C        4.77099742      -8.50217827      -0.09210075
C        4.07653021      -9.41469922      -0.46553991
Br       2.95363547     -10.89016842      -1.06935945
