177
Properties=species:S:1:pos:R:3 pbc="F F F"
C        0.00000000       0.00000000       0.00000000
O        3.99957545      -0.89233856      -7.63337731
C        3.17781195      -0.06156082      -7.24880687
C        3.67031051       1.17815442      -6.51502796
S        2.38330253       2.03429146      -5.55669168
C        3.43213033       3.17119642      -4.71231180
N        4.21959803       3.86010706      -5.47025087
C        5.02832297       4.83520177      -4.88476406
C        5.90542997       5.55910585      -5.69658742
C        6.74061799       6.53546453      -5.14809055
C        6.70312725       6.79601607      -3.77925316
C        5.82314263       6.08669313      -2.96257205
C        4.98597178       5.11333337      -3.52336371
C        4.05268319       4.33583439      -2.68659796
O        4.01286250       4.59070629      -1.48347110
N        3.31511570       3.33443400      -3.33255974
C        2.48953318       2.49913568      -2.51241043
C        2.64027824       1.10359278      -2.51981501
C        1.83506430       0.29639328      -1.71078046
C        0.88137013       0.88137013      -0.88137013
C        0.73375775       2.26547975      -0.84378346
C        1.54273199       3.07144664      -1.64986442
N        1.81655936      -0.11397093      -7.47471865
C        1.09018764      -1.09077811      -8.18276994
C        1.66823227      -2.21115953      -8.78445808
C        0.88012583      -3.12383671      -9.49495786
C       -0.49168315      -2.91790621      -9.60487298
Br      -1.55158774      -4.14085225     -10.58012788
C       -1.08483301      -1.81217056      -9.00270207
C       -0.29451387      -0.90351811      -8.29161565
H        4.09714257       1.85746269      -7.25888339
H        4.45698126       0.85727874      -5.82356988
H        5.93816477       5.35904723      -6.76515804
H        7.42147021       7.08970511      -5.78998801
H        7.35840747       7.54979565      -3.34886669
H        5.79585778       6.28785031      -1.89364954
H        3.40557730       0.62675808      -3.12737992
H        1.96774596      -0.78249887      -1.72796461
H       -0.00020906       2.72916017      -0.18980668
H        1.41661959       4.15134076      -1.60473994
H        1.27980482       0.64650326      -7.06836037
H        2.73417088      -2.40736925      -8.72464651
H        1.35301320      -3.98560828      -9.95883366
H       -2.15557599      -1.64489138      -9.08350527
H       -0.77814007      -0.04465100      -7.83260382
O       -7.89177215      -3.51287774       0.66403569
C       -7.41452037      -2.76358771      -0.18694993
C       -6.64344728      -3.36749721      -1.35254840
S       -5.56568657      -2.18763993      -2.22095916
C       -4.72257537      -3.34617370      -3.24688949
N       -5.48605311      -4.12950989      -3.93439296
C       -4.89589464      -5.02496018      -4.82743398
C       -5.71639043      -5.89671536      -5.54801744
C       -5.16457947      -6.81657407      -6.44301953
C       -3.78359487      -6.87003526      -6.62476635
C       -2.95728354      -5.99653258      -5.91859170
C       -3.52106792      -5.07419380      -5.02740714
C       -2.67538568      -4.14468301      -4.25504686
O       -1.45975225      -4.18633802      -4.44094962
N       -3.33143634      -3.31528179      -3.33539131
C       -2.51180600      -2.48883116      -2.50044213
C       -2.60507195      -2.55708638      -1.10152770
C       -1.79615943      -1.75196735      -0.29411125
C       -0.88137013      -0.88137013      -0.88137013
C       -0.75883445      -0.81723585      -2.26695067
C       -1.56509087      -1.62619404      -3.07275813
N       -7.56300704      -1.39120412      -0.22309592
C       -8.28024244      -0.57097125       0.66903422
C       -8.97565316      -1.04840901       1.78253136
C       -9.68817799      -0.17025566       2.60718666
C       -9.70615916       1.19113969       2.31973585
Br     -10.68382561       2.37297273       3.42316499
C       -9.01019293       1.68446338       1.22003106
C       -8.29743501       0.80430739       0.39954395
H       -7.37233220      -3.79158241      -2.04957405
H       -6.01794409      -4.17104634      -0.94883945
H       -6.79446204      -5.85863332      -5.40927468
H       -5.81359551      -7.49217510      -6.99539271
H       -3.35128551      -7.59103264      -7.31475166
H       -1.87911915      -6.04013058      -6.05810789
H       -3.28174728      -3.25847337      -0.61949464
H       -1.88062945      -1.82019108       0.78760882
H       -0.03845595      -0.14887371      -2.73142813
H       -1.45309978      -1.56611994      -4.15348056
H       -7.08458416      -0.92309265      -0.98699165
H       -8.98919319      -2.10272610       2.04047115
H      -10.22579234      -0.56560781       3.46516158
H       -9.01889338       2.74642005       0.98943544
H       -7.76420141       1.21080203      -0.45641337
O        1.13328173       4.65587591       7.21802002
C        0.72496883       4.98485624       6.10517060
C       -0.75470857       4.82372650       5.78505783
S       -1.13508989       4.83262032       4.00657546
C       -2.82954134       4.36275803       4.12333919
N       -3.54469323       5.07874767       4.92651506
C       -4.91255905       4.81761097       5.01811878
C       -5.68312055       5.56762872       5.91037397
C       -7.05348849       5.32958252       6.04110206
C       -7.66466589       4.33702879       5.27670181
C       -6.90621956       3.59085041       4.37533784
C       -5.53365452       3.84106710       4.24794724
C       -4.69958892       3.06185927       3.31366736
O       -5.25481456       2.20391079       2.62831454
N       -3.32576251       3.33873581       3.31761112
C       -2.49052557       2.51298610       2.49756762
C       -1.40985302       1.80606190       3.04777112
C       -0.60415850       0.99674857       2.24133098
C       -0.88137013       0.88137013       0.88137013
C       -1.96325005       1.55699540       0.32277551
C       -2.77062064       2.36214610       1.13127630
N        1.48755738       5.55804498       5.10681949
C        2.85454663       5.89448266       5.14224344
C        3.68388685       5.67976578       6.24565188
C        5.02827061       6.06757657       6.21194102
C        5.54781629       6.67187816       5.07122175
Br       7.35811118       7.21184174       5.03395733
C        4.73762824       6.88376470       3.95956205
C        3.39532682       6.49287577       3.99603472
H       -1.29373657       5.63266528       6.28708681
H       -1.07566782       3.86211545       6.20004661
H       -5.21042137       6.34300388       6.50894479
H       -7.64174892       5.91776872       6.74164568
H       -8.72974653       4.14436203       5.38296124
H       -7.38253731       2.81406099       3.78075932
H       -1.19884396       1.84728360       4.11358773
H        0.22705711       0.45478887       2.68547993
H       -2.19244598       1.46173637      -0.73542456
H       -3.61426058       2.87956191       0.67887779
H        0.99430776       5.74917826       4.23979795
H        3.31777094       5.21399647       7.15522261
H        5.65298497       5.89474837       7.08447518
H        5.13624637       7.35445848       3.06482579
H        2.77961487       6.67157522       3.11785241
O       -1.25080866      -6.89005128       5.10137158
C       -0.50182949      -6.72785961       4.13902789
C        0.87444855      -6.11920226       4.36984208
S        1.65354803      -5.45337628       2.86736135
C        3.01967316      -4.65391795       3.64204745
N        3.71388327      -5.39865402       4.43741867
C        4.85603070      -4.86037169       5.03188641
C        5.59053491      -5.65200598       5.91858235
C        6.73309812      -5.14702592       6.54404903
C        7.15076853      -3.84262822       6.28499973
C        6.43078554      -3.04859943       5.39302284
C        5.28939516      -3.56632105       4.76695266
C        4.49744406      -2.74956523       3.82810626
O        4.88901221      -1.60751248       3.59051519
N        3.33197463      -3.33494655       3.31518827
C        2.49618176      -2.51335170       2.49154582
C        1.14478995      -2.30809043       2.81080566
C        0.33809035      -1.49884555       2.00530214
C        0.88137013      -0.88137013       0.88137013
C        2.22564034      -1.05499756       0.56238307
C        3.03201174      -1.86071002       1.37132129
N       -0.77026362      -7.10848776       2.83908294
C       -1.91757382      -7.75694445       2.34280884
C       -3.01153067      -8.12191806       3.13114342
C       -4.10470517      -8.78922767       2.56672449
C       -4.10658765      -9.09309088       1.20878038
Br      -5.57476112     -10.01054489       0.45190412
C       -3.02906665      -8.72744612       0.40731903
C       -1.93946808      -8.05873035       0.97432140
H        1.51076226      -6.89271517       4.81001122
H        0.75283452      -5.29915327       5.08584209
H        5.26824776      -6.67031417       6.12380811
H        7.29427109      -5.77197972       7.23491251
H        8.03516714      -3.44467931       6.77722336
H        6.75495344      -2.02943403       5.19297015
H        0.70861243      -2.74555563       3.70554723
H       -0.70581962      -1.34945309       2.26957823
H        2.65890645      -0.56627242      -0.30642109
H        4.08122569      -1.98198302       1.10949157
H       -0.04806540      -6.88036642       2.16236744
H       -3.04875821      -7.90592513       4.19428122
H       -4.94234901      -9.06756428       3.20102330
H       -3.02349731      -8.96062883      -0.65409362
H       -1.10676552      -7.78607849       0.33049978
