185
Properties=species:S:1:pos:R:3 pbc="F F F"
C        0.00000000       0.00000000       0.00000000
O        3.99957545      -0.89233856      -7.63337731
C        3.17781195      -0.06156082      -7.24880687
C        3.67031051       1.17815442      -6.51502796
S        2.38330253       2.03429146      -5.55669168
C        3.43213033       3.17119642      -4.71231180
N        4.21959803       3.86010706      -5.47025087
C        5.02832297       4.83520177      -4.88476406
C        5.90542997       5.55910585      -5.69658742
C        6.74061799       6.53546453      -5.14809055
C        6.70312725       6.79601607      -3.77925316
C        5.82314263       6.08669313      -2.96257205
C        4.98597178       5.11333337      -3.52336371
C        4.05268319       4.33583439      -2.68659796
O        4.01286250       4.59070629      -1.48347110
N        3.31511570       3.33443400      -3.33255974
C        2.48953318       2.49913568      -2.51241043
C        2.64027824       1.10359278      -2.51981501
C        1.83506430       0.29639328      -1.71078046
C        0.88137013       0.88137013      -0.88137013
C        0.73375775       2.26547975      -0.84378346
C        1.54273199       3.07144664      -1.64986442
N        1.81655936      -0.11397093      -7.47471865
C        1.09018764      -1.09077811      -8.18276994
C        1.66823227      -2.21115953      -8.78445808
C        0.88012583      -3.12383671      -9.49495786
C       -0.49168315      -2.91790621      -9.60487298
C       -1.08483301      -1.81217056      -9.00270207
C       -0.29451387      -0.90351811      -8.29161565
H        4.09714257       1.85746269      -7.25888339
H        4.45698126       0.85727874      -5.82356988
H        5.93816477       5.35904723      -6.76515804
H        7.42147021       7.08970511      -5.78998801
H        7.35840747       7.54979565      -3.34886669
H        5.79585778       6.28785031      -1.89364954
H        3.40557730       0.62675808      -3.12737992
H        1.96774596      -0.78249887      -1.72796461
H       -0.00020906       2.72916017      -0.18980668
H        1.41661959       4.15134076      -1.60473994
H        1.27980482       0.64650326      -7.06836037
H        2.73417088      -2.40736925      -8.72464651
H        1.35301320      -3.98560828      -9.95883366
H       -2.15557599      -1.64489138      -9.08350527
H       -0.77814007      -0.04465100      -7.83260382
C       -1.29945376      -3.84993337     -10.34813068
C       -1.97596164      -4.63050613     -10.97060900
Br      -3.06981767      -5.89262625     -11.97710380
O       -7.92750928      -3.43868656       0.62558164
C       -7.43641911      -2.70098586      -0.22765305
C       -6.66059941      -3.32166022      -1.38123326
S       -5.56514480      -2.15876165      -2.25037922
C       -4.72332913      -3.33342410      -3.25888533
N       -5.48763586      -4.11609706      -3.94622304
C       -4.89760993      -5.02435418      -4.82632469
C       -5.71941490      -5.89523528      -5.54647305
C       -5.16792926      -6.82758495      -6.42865886
C       -3.78594484      -6.89454954      -6.59790210
C       -2.95818513      -6.02209679      -5.89212590
C       -3.52158873      -5.08719710      -5.01388304
C       -2.67454323      -4.15833125      -4.24224107
O       -1.45775882      -4.21209897      -4.41718209
N       -3.33126148      -3.31531745      -3.33553051
C       -2.51170402      -2.48873391      -2.50064136
C       -2.61763668      -2.54399422      -1.10205513
C       -1.80874429      -1.73888794      -0.29460581
C       -0.88137013      -0.88137013      -0.88137013
C       -0.74632096      -0.83036705      -2.26633296
C       -1.55260479      -1.63932113      -3.07211713
N       -7.57262913      -1.32773817      -0.27693978
C       -8.29036970      -0.49360348       0.60179371
C       -8.99950130      -0.95530216       1.71327265
C       -9.71144456      -0.06387971       2.52407728
C       -9.71508465       1.29506483       2.22473620
C       -9.00537831       1.77276358       1.12691623
C       -8.29325541       0.87937294       0.32029880
H       -7.38710463      -3.74549085      -2.08089317
H       -6.04562804      -4.12703368      -0.96516816
H       -6.79827174      -5.84663881      -5.41745949
H       -5.81801134      -7.50234223      -6.98080975
H       -3.35399000      -7.62523528      -7.27784452
H       -1.87927688      -6.07621634      -6.02186440
H       -3.30453238      -3.23528708      -0.61989584
H       -1.90314253      -1.79695544       0.78688627
H       -0.01616462      -0.17232102      -2.73027215
H       -1.43076714      -1.58963159      -4.15230155
H       -7.08356898      -0.87044645      -1.04065303
H       -9.02445059      -2.00717640       1.98017885
H      -10.25987034      -0.44708707       3.38071883
H       -9.00283740       2.83270703       0.88709247
H       -7.74913043       1.27377735      -0.53445967
C      -10.45954050       2.20944960       3.05134735
C      -11.08302226       2.97524684       3.74363419
Br     -12.09113955       4.21347622       4.86300346
O       -6.76356872      -1.28309871       5.26014419
C       -5.66455687      -0.77328265       5.47378379
C       -5.47017977       0.70875800       5.18455512
S       -3.72963909       1.21349093       5.03115565
C       -4.00794706       2.85476167       4.45292983
N       -4.81058752       3.56375433       5.17561411
C       -5.02426023       4.89787021       4.82615837
C       -5.91730946       5.65826489       5.58554889
C       -6.16845290       6.99386072       5.26185945
C       -5.52487230       7.58023275       4.17329144
C       -4.62341418       6.83282387       3.41616977
C       -4.37456255       5.49573312       3.75237320
C       -3.43694655       4.67292733       2.96524167
O       -2.85821136       5.20830620       2.02052232
N       -3.31673805       3.32732613       3.33804526
C       -2.49594165       2.49173711       2.51340054
C       -3.01089988       1.32421189       1.92857426
C       -2.20471961       0.51829467       1.11922376
C       -0.88137013       0.88137013       0.88137013
C       -0.36037078       2.04830736       1.43434282
C       -1.16902239       2.85542911       2.23959155
N       -4.57304639      -1.41754267       6.02180336
C       -4.48045736      -2.75403625       6.45575836
C       -5.52995848      -3.67323839       6.38481072
C       -5.36669716      -4.97845138       6.86300120
C       -4.14988619      -5.36855051       7.41394794
C       -3.09092094      -4.46802900       7.48280656
C       -3.25698827      -3.16531660       7.00191200
H       -5.95332715       1.27094359       5.98921791
H       -5.97533311       0.92545813       4.23703863
H       -6.42185053       5.20481687       6.43570264
H       -6.86839434       7.57417747       5.85859151
H       -5.72523702       8.61737631       3.91445648
H       -4.12321919       7.28948099       2.56465743
H       -4.05197741       1.04213206       2.06560583
H       -2.62151983      -0.38107058       0.67276244
H        0.66792702       2.34382465       1.24286016
H       -0.74669798       3.76586674       2.66013556
H       -3.73474209      -0.85111956       6.11104592
H       -6.49540065      -3.40885447       5.96490196
H       -6.19918487      -5.67462463       6.80167834
H       -2.13741123      -4.76541328       7.91103994
H       -2.41778274      -2.47725091       7.06928093
C       -3.98754698      -6.70741567       7.91861223
C       -3.85158789      -7.82871525       8.34126858
Br      -3.63175355      -9.64176182       9.02466815
O        8.11142266       0.38978379       3.01897534
C        7.03795555       0.28322250       3.61032496
C        6.44381215      -1.10328737       3.81639338
S        4.66756174      -1.09957577       4.20714816
C        4.39363955      -2.83618583       4.08581318
N        5.19375866      -3.56943908       4.78675822
C        4.99456547      -4.95063271       4.80309062
C        5.87809663      -5.74992105       5.53310555
C        5.72095105      -7.13769563       5.56552638
C        4.67463654      -7.73730581       4.86645413
C        3.78106022      -6.94714525       4.14420235
C        3.94431807      -5.55587007       4.12248073
C        3.02508602      -4.69167676       3.35835277
O        2.09236031      -5.23081328       2.76386630
N        3.32059918      -3.32186022       3.33965005
C        2.50196446      -2.48815414       2.51096069
C        3.06978121      -1.68175578       1.51214905
C        2.26261838      -0.87652396       0.70309570
C        0.88137013      -0.88137013       0.88137013
C        0.29877711      -1.69253089       1.85171296
C        1.10677631      -2.50051437       2.65675236
N        6.32511595       1.32251384       4.17470497
C        6.66213273       2.68937848       4.20942522
C        7.82200085       3.22296200       3.64249197
C        8.09921210       4.59114244       3.74317732
C        7.21422297       5.43112499       4.41218564
C        6.04908648       4.91721821       4.97383024
C        5.77425287       3.54994624       4.86927704
H        7.00314189      -1.58860931       4.62173746
H        6.58951879      -1.66249790       2.88581318
H        6.69603446      -5.28637969       6.07995589
H        6.41735861      -7.74924104       6.13456367
H        4.55539732      -8.81818518       4.88348730
H        2.96605785      -7.41524106       3.59605871
H        4.14101808      -1.69236553       1.32633168
H        2.71991522      -0.26030912      -0.06701263
H       -0.77942482      -1.71023611       1.98794649
H        0.63432643      -3.13117409       3.40719976
H        5.44539701       1.05966955       4.60894100
H        8.53920702       2.60231624       3.11455736
H        9.01045870       4.98260648       3.29838635
H        5.35273479       5.56693869       5.49724179
H        4.86031779       3.16932633       5.31882129
C        7.50747952       6.83622490       4.52748893
C        7.75308188       8.01299607       4.62405543
Br       8.15020012       9.91573553       4.78019529
