154
Properties=species:S:1:pos:R:3 pbc="F F F"
C        5.05846214       5.09115194      -3.58270229
O        4.16019642       4.19953592      -4.24331003
C        3.39767306       3.41709922      -3.41180267
C        2.87745957       3.90567551      -2.20510520
C        2.07882081       3.09339722      -1.39581950
C        1.79091335       1.79091335      -1.79091335
C        2.29037856       1.29354409      -2.99098147
C        3.08633929       2.10478779      -3.81956719
C        3.56728159       1.48607163      -5.09851868
O        3.65275872       0.26372034      -5.14107990
N        3.82055201       2.37010433      -6.12397342
C        4.24606103       2.03484576      -7.41367003
C        4.39197488       3.07355104      -8.32460819
C        4.80771240       2.78483737      -9.62376911
C        5.07640499       1.46582917      -9.97821123
C        4.91692921       0.47469818      -9.01308379
C        5.19068510      -0.97380488      -9.28980451
N        4.50197801       0.75926227      -7.75045139
H        5.59150801       4.59726583      -2.76272513
H        4.52856374       5.98057650      -3.22815037
H        5.80140171       5.41846706      -4.31654464
H        3.06361934       4.92472110      -1.87864251
H        1.68125551       3.48918343      -0.46395614
H        2.05652942       0.27463822      -3.29763159
H        3.70710913       3.35351296      -5.91695460
H        4.18026894       4.10082948      -8.04701551
H        4.91660213       3.58968331     -10.34535914
H        5.02346209      -1.57814231      -8.39164202
H        6.23213571      -1.11715890      -9.59406246
H        4.52331361      -1.34887328     -10.07161892
C        5.50688352       1.19058092     -11.32451233
C        5.86740929       0.96006050     -12.45203949
Br       6.45034896       0.58732849     -14.27515556
C       -4.07834521      -4.08161864      -5.57235252
O       -4.24235036      -4.20149058      -4.15920142
C       -3.41997732      -3.40044896      -3.40614867
C       -3.09418498      -2.09478383      -3.79927148
C       -2.27939305      -1.29372069      -2.99492378
C       -1.79091335      -1.79091335      -1.79091335
C       -2.11336441      -3.08108832      -1.38045138
C       -2.94146926      -3.89331148      -2.17591353
C       -3.24419854      -5.26298009      -1.64469328
O       -2.44451817      -5.75611974      -0.85692105
N       -4.43436881      -5.81151760      -2.06874335
C       -4.94839573      -7.05615529      -1.69002582
C       -6.19786028      -7.40534467      -2.18692916
C       -6.75203158      -8.63403760      -1.83024971
C       -6.03969541      -9.48786022      -0.99288977
C       -4.78911388      -9.07814659      -0.53745070
C       -3.93758536      -9.92767936       0.35857999
N       -4.25675433      -7.87527946      -0.87965789
H       -3.02099817      -4.07121122      -5.85928958
H       -4.59645560      -3.19359086      -5.94724415
H       -4.54306599      -4.95708480      -6.03626261
H       -3.47761866      -1.66790130      -4.72146299
H       -2.03851468      -0.28209780      -3.31378260
H       -1.73246606      -3.46259202      -0.43374115
H       -4.97536027      -5.27136712      -2.73084930
H       -6.75241216      -6.73769797      -2.83800380
H       -7.73226085      -8.91208306      -2.20730068
H       -2.98820430      -9.42766470       0.57890721
H       -3.70323714     -10.88136685      -0.12443527
H       -4.44501914     -10.11147375       1.31043364
C       -6.62976024     -10.75292589      -0.63929064
C       -7.12393954     -11.81241838      -0.34315136
Br      -7.92298566     -13.52552814       0.13568080
C       -3.86255186       4.33563675       5.53412777
O       -4.24744189       4.18838106       4.16721942
C       -3.41865849       3.39859043       3.40932603
C       -2.82210184       2.23995793       3.92618051
C       -2.00813246       1.44032425       3.11958081
C       -1.79091335       1.79091335       1.79091335
C       -2.38408950       2.93198190       1.25883272
C       -3.21422024       3.73905449       2.05741954
C       -3.81918045       4.93992540       1.39276605
O       -3.23765852       5.40242329       0.41747715
N       -5.01116515       5.37437400       1.92909061
C       -5.77873444       6.44871252       1.46712987
C       -6.98406000       6.69265451       2.11341960
C       -7.78485603       7.74938602       1.68207682
C       -7.35699715       8.54237074       0.62107751
C       -6.13428435       8.24664785       0.02377898
C       -5.57851684       9.04562910      -1.11746121
N       -5.36123713       7.20946951       0.44098504
H       -2.78859996       4.52741105       5.63548796
H       -4.16224599       3.45878076       6.11626386
H       -4.39724963       5.20058628       5.93857751
H       -2.98969834       1.92518251       4.95210210
H       -1.55510920       0.54337673       3.53590914
H       -2.21479683       3.19798785       0.21601456
H       -5.35073712       4.88214108       2.74469850
H       -7.31676265       6.07230703       2.93904425
H       -8.73300528       7.94258575       2.17605356
H       -4.59998834       8.65825731      -1.42128386
H       -5.44234699      10.09130640      -0.82461412
H       -6.24222827       8.98940557      -1.98557460
C       -8.19851997       9.62988202       0.19357478
C       -8.90329532      10.54067271      -0.16445875
Br     -10.04285747      12.01334423      -0.74336869
C        4.46804618      -5.48853314       3.77573704
O        4.18224803      -4.17212861       4.24866572
C        3.39795740      -3.41088485       3.41773271
C        2.33286700      -3.96302062       2.69235266
C        1.53374243      -3.15530309       1.87899201
C        1.79091335      -1.79091335       1.79091335
C        2.83756748      -1.22468515       2.51265148
C        3.64222752      -2.02518996       3.34327678
C        4.73670752      -1.32367490       4.09148949
O        5.16097201      -0.27264879       3.62393817
N        5.12270574      -1.92069144       5.27123258
C        6.09565983      -1.44326492       6.15565208
C        6.30021434      -2.16491420       7.32500558
C        7.25566008      -1.72192607       8.23873273
C        7.98995949      -0.57341450       7.95707140
C        7.73920619       0.09707402       6.76257901
C        8.48254412       1.33613879       6.36027940
N        6.79997346      -0.33264605       5.87907216
H        4.74723279      -5.48800000       2.71626618
H        3.62122098      -6.15700384       3.95906578
H        5.32044101      -5.86905982       4.34691257
H        2.09050195      -5.01981293       2.75666807
H        0.70986341      -3.59955741       1.32497425
H        3.03021967      -0.15461201       2.44396756
H        4.67407145      -2.79565243       5.50785281
H        5.72557116      -3.05886333       7.54367944
H        7.41670153      -2.27517319       9.15976987
H        8.14617824       1.68831723       5.37910078
H        9.55574186       1.13435887       6.28765627
H        8.30672670       2.14103440       7.08036694
C        8.97326012      -0.13523570       8.91348095
C        9.79677439       0.23173905       9.71447394
Br      11.12832732       0.82510618      11.00961187
C       -0.00445707       0.01189536      -1.78238275
H       -0.66409135       0.67374010      -2.43557963
H        0.65740317      -0.63156657      -2.45157240
C       -0.90989263      -0.90692880      -0.91072765
C        0.90977584       0.90977584      -0.90977584
C       -0.00465871       1.77757030       0.00794375
H       -0.66225468       2.44313916      -0.64384735
H        0.64322798       2.43503045       0.67728295
C       -1.78241447       0.00034974      -0.00472694
H       -2.45427497      -0.65498947       0.64260836
H       -2.43311707       0.67328779      -0.65473579
C       -0.91132561       0.90220522       0.91563759
C       -0.01476271      -0.02253852       1.78660255
H       -0.67934791      -0.69751639       2.42135241
H        0.63392994       0.61504881       2.47327442
C        0.01484550      -1.77751727      -0.01636693
H        0.67870853      -2.42144646      -0.68295456
H       -0.62264859      -2.45592969       0.64226336
C        1.78714474       0.01002794       0.00389507
H        2.44202412       0.67113390       0.66197326
H        2.45385902      -0.65136977      -0.64189061
C        0.91606151      -0.90478549       0.90901405
