133
Properties=species:S:1:pos:R:3 pbc="F F F"
C        0.00000000       0.00000000       0.00000000
C        4.14855812       4.18124791      -2.67279827
O        3.25029239       3.28963189      -3.33340600
C        2.48776904       2.50719520      -2.50189865
C        1.96755555       2.99577149      -1.29520118
C        1.16891678       2.18349319      -0.48591548
C        0.88100932       0.88100932      -0.88100932
C        1.38047454       0.38364006      -2.08107745
C        2.17643526       1.19488376      -2.90966317
C        2.65737757       0.57616761      -4.18861465
O        2.74285469      -0.64618369      -4.23117588
N        2.91064798       1.46020031      -5.21406939
C        3.33615701       1.12494174      -6.50376601
C        3.48207086       2.16364701      -7.41470416
C        3.89780837       1.87493334      -8.71386509
C        4.16650096       0.55592515      -9.06830721
C        4.00702518      -0.43520585      -8.10317977
C        4.28078107      -1.88370890      -8.37990049
N        3.59207398      -0.15064175      -6.84054736
H        4.68160399       3.68736180      -1.85282110
H        3.61865972       5.07067247      -2.31824635
H        4.89149769       4.50856303      -3.40664062
H        2.15371531       4.01481708      -0.96873848
H        0.77135148       2.57927940       0.44594789
H        1.14662540      -0.63526581      -2.38772757
H        2.79720511       2.44360893      -5.00705058
H        3.27036491       3.19092545      -7.13711148
H        4.00669811       2.67977929      -9.43545512
H        4.11355806      -2.48804634      -7.48173799
H        5.32223168      -2.02706293      -8.68415844
H        3.61340958      -2.25877731      -9.16171490
C        4.59697949       0.28067689     -10.41460830
C        4.95750526       0.05015648     -11.54213547
Br       5.54044494      -0.32257554     -13.36525153
C       -3.14302222      -3.19763148      -4.66195060
O       -3.33315536      -3.29015619      -3.25001874
C       -2.50997033      -2.49031082      -2.49658173
C       -2.15492037      -1.19740727      -2.90620057
C       -1.34018851      -0.39652126      -2.10161568
C       -0.88100932      -0.88100932      -0.88100932
C       -1.23274594      -2.15818347      -0.45426264
C       -2.06113189      -2.96984504      -1.25000525
C       -2.39659077      -4.32473070      -0.70083836
O       -1.61913501      -4.81769438       0.10898251
N       -3.58869394      -4.86016752      -1.13605623
C       -4.13061844      -6.08910180      -0.74514451
C       -5.37729778      -6.42550225      -1.25762201
C       -5.95870239      -7.63819427      -0.88971015
C       -5.27566764      -8.48938456      -0.02568113
C       -4.02611463      -8.09321615       0.44433168
C       -3.20485474      -8.94147355       1.36935563
N       -3.46721012      -6.90571928       0.09094980
H       -2.08091466      -3.21023473      -4.93063750
H       -3.63918127      -2.30753525      -5.06086202
H       -3.61488238      -4.07296204      -5.11885691
H       -2.51510991      -0.78011082      -3.84205015
H       -1.07639475       0.60516332      -2.43345157
H       -0.87472184      -2.52964594       0.50528062
H       -4.10886465      -4.32243803      -1.81656194
H       -5.90900122      -5.75989166      -1.92950897
H       -6.93703564      -7.90598366      -1.27891322
H       -2.25083743      -8.45397345       1.59756116
H       -2.97888396      -9.90725422       0.90681098
H       -3.73155778      -9.10004818       2.31525879
C       -5.89353361      -9.73787994       0.33914886
C       -6.41099637     -10.78349482       0.64469398
Br      -7.24768988     -12.47416564       1.13873459
C       -2.89690933       3.50787500       4.59781997
O       -3.33840192       3.27462097       3.26030740
C       -2.50819761       2.48826908       2.50039619
C       -1.83082065       1.38642815       3.04127941
C       -1.01721572       0.58712760       2.23398214
C       -0.88100932       0.88100932       0.88100932
C       -1.55486127       1.96472987       0.32560090
C       -2.38533997       2.77028584       1.12535638
C       -3.08021645       3.90650444       0.43543894
O       -2.56937940       4.34691536      -0.58844787
N       -4.26557350       4.31008835       1.00925583
C       -5.10675496       5.32245608       0.53565372
C       -6.29071495       5.54082921       1.22887788
C       -7.16271484       6.53558038       0.78831158
C       -6.82570503       7.29413585      -0.32910755
C       -5.61949547       7.02736966      -0.97186603
C       -5.15898552       7.79397886      -2.17599172
N       -4.77682330       6.05010471      -0.54494842
H       -1.83024509       3.75519459       4.63634722
H       -3.12459863       2.64787469       5.23510522
H       -3.45423654       4.36555445       4.98691035
H       -1.93366884       1.11554939       4.08805265
H       -0.50083613      -0.26546509       2.66931196
H       -1.44869330       2.18619350      -0.73579963
H       -4.54112820       3.84353761       1.86319880
H       -6.55255987       4.94729222       2.09854976
H       -8.09480625       6.70794561       1.31918066
H       -4.17789357       7.43881454      -2.50945839
H       -5.06133115       8.85822641      -1.94023036
H       -5.85950948       7.66315893      -3.00632124
C       -7.73968621       8.31785299      -0.76527451
C       -8.50514546       9.17521609      -1.13056434
Br      -9.74282831      10.56149971      -1.72120709
C        4.16017984      -4.16978975       2.67263471
O        3.24995755      -3.29027475       3.33309800
C        2.48781100      -2.50730372       2.50174816
C        1.98071673      -2.99049057       1.28732092
C        1.18205410      -2.17813044       0.47814092
C        0.88100932      -0.88100932       0.88100932
C        1.36733937      -0.38913840       2.08871428
C        2.16316742      -1.20063445       2.91718032
C        2.62942601      -0.58817894       4.20455488
O        2.70508115       0.63442730       4.25719303
N        2.88164475      -1.47816832       5.22510461
C        3.29459106      -1.14966387       6.52060983
C        3.44154251      -2.19425457       7.42462496
C        3.84500631      -1.91244098       8.72915952
C        4.10071317      -0.59419340       9.09582676
C        3.94098734       0.40314207       8.13715383
C        4.20135064       1.85151912       8.42714114
N        3.53799621       0.12520029       6.86918368
H        4.69567621      -3.66546165       1.86064903
H        3.63994881      -5.06049064       2.30713909
H        4.89996302      -4.49705911       3.40967921
H        2.17729091      -4.00550690       0.95447306
H        0.79476328      -2.56972149      -0.45980177
H        1.12323237       0.62552467       2.40137947
H        2.77743747      -2.46078493       5.00964221
H        3.23996223      -3.22094745       7.13749218
H        3.95457900      -2.72200164       9.44535188
H        4.03636486       2.46150464       7.53238950
H        5.23928239       2.00052506       8.74056986
H        3.52508502       2.21535509       9.20661724
C        4.51865851      -0.32609680      10.44750938
C        4.86868773      -0.10156590      11.57954358
Br       5.43465538       0.26148157      13.40994712
