125
Properties=species:S:1:pos:R:3 pbc="F F F"
C        0.00000000       0.00000000       0.00000000
C        4.14855812       4.18124791      -2.67279827
O        3.25029239       3.28963189      -3.33340600
C        2.48776904       2.50719520      -2.50189865
C        1.96755555       2.99577149      -1.29520118
C        1.16891678       2.18349319      -0.48591548
C        0.88100932       0.88100932      -0.88100932
C        1.38047454       0.38364006      -2.08107745
C        2.17643526       1.19488376      -2.90966317
C        2.65737757       0.57616761      -4.18861465
O        2.74285469      -0.64618369      -4.23117588
N        2.91064798       1.46020031      -5.21406939
C        3.33615701       1.12494174      -6.50376601
C        3.48207086       2.16364701      -7.41470416
C        3.89780837       1.87493334      -8.71386509
C        4.16650096       0.55592515      -9.06830721
Br       4.73234746       0.19412253     -10.83796516
C        4.00702518      -0.43520585      -8.10317977
C        4.28078107      -1.88370890      -8.37990049
N        3.59207398      -0.15064175      -6.84054736
H        4.68160399       3.68736180      -1.85282110
H        3.61865972       5.07067247      -2.31824635
H        4.89149769       4.50856303      -3.40664062
H        2.15371531       4.01481708      -0.96873848
H        0.77135148       2.57927940       0.44594789
H        1.14662540      -0.63526581      -2.38772757
H        2.79720511       2.44360893      -5.00705058
H        3.27036491       3.19092545      -7.13711148
H        4.00669811       2.67977929      -9.43545512
H        4.11355806      -2.48804634      -7.48173799
H        5.32223168      -2.02706293      -8.68415844
H        3.61340958      -2.25877731      -9.16171490
C       -3.16235647      -3.17783769      -4.66241014
O       -3.33261827      -3.29124646      -3.24946557
C       -2.51004971      -2.49048859      -2.49632458
C       -2.17730697      -1.18778629      -2.89343495
C       -1.36252868      -0.38676573      -2.08903104
C       -0.88100932      -0.88100932      -0.88100932
C       -1.21041812      -2.16816429      -0.46660963
C       -2.03859112      -2.98025393      -1.26213714
C       -2.34909716      -4.34648678      -0.72657588
O       -1.55466676      -4.83965361       0.06647349
N       -3.53976483      -4.89189511      -1.15325775
C       -4.06043007      -6.13286169      -0.77157299
C       -5.30927663      -6.47898180      -1.27216361
C       -5.86993028      -7.70393035      -0.91274617
C       -5.16452327      -8.55721437      -0.06899569
Br      -5.94883888     -10.21499305       0.39939678
C       -3.91414245      -8.15074554       0.38988888
C       -3.06976730      -9.00006746       1.29286211
N       -3.37546510      -6.95147399       0.04495950
H       -2.10381326      -3.17292226      -4.94505138
H       -3.67528843      -2.28924646      -5.04304364
H       -3.62876398      -4.05329366      -5.12464370
H       -2.55522054      -0.76312539      -3.81892494
H       -1.11620674       0.62255021      -2.41102646
H       -0.83495394      -2.54733628       0.48320306
H       -4.07583091      -4.35225910      -1.81977461
H       -5.85842540      -5.81175113      -1.92822532
H       -6.84974369      -7.97951546      -1.29267336
H       -2.11925216      -8.50303328       1.51503572
H       -2.83736013      -9.95667516       0.81470809
H       -3.58183108      -9.17788642       2.24337034
C       -2.93301369       3.45363115       4.61595946
O       -3.33787052       3.27714819       3.25831159
C       -2.50857187       2.48853547       2.49975554
C       -1.88422833       1.34872833       3.02557155
C       -1.07037780       0.54921426       2.21873340
C       -0.88100932       0.88100932       0.88100932
C       -1.50192988       2.00305781       0.34020435
C       -2.33219419       2.80960784       1.13918016
C       -2.96808467       3.98902481       0.46505035
O       -2.41056289       4.44463115      -0.52734715
N       -4.15817973       4.41268872       1.01404924
C       -4.95116986       5.46632541       0.54736949
C       -6.14959415       5.70115931       1.20966858
C       -6.97500166       6.73715930       0.77444585
C       -6.57805558       7.51918971      -0.30651197
Br      -7.71713420       8.92061883      -0.87331789
C       -5.36057265       7.23369746      -0.91927101
C       -4.83717718       8.02248667      -2.08269119
N       -4.56346728       6.21655056      -0.49803825
H       -1.86090298       3.66476319       4.69612073
H       -3.20832131       2.58183664       5.21742058
H       -3.47539718       4.31630531       5.01499885
H       -2.02958120       1.04847888       4.05921079
H       -0.59557376      -0.33303303       2.64214227
H       -1.35434219       2.25429592      -0.70955095
H       -4.47595326       3.92866814       1.84324322
H       -6.45818682       5.08934086       2.05087417
H       -7.91798179       6.92295221       1.28099852
H       -3.85743434       7.64626495      -2.39644957
H       -4.71374960       9.07503088      -1.80945328
H       -5.51407881       7.94077636      -2.93850800
C        4.19599470      -4.13333237       2.67327723
O        3.24895694      -3.29228843       3.33208492
C        2.48795531      -2.50763382       2.50127376
C        2.02204564      -2.97290697       1.26357560
C        1.22329891      -2.16029715       0.45472939
C        0.88100932      -0.88100932       0.88100932
C        1.32611493      -0.40738909       2.11168802
C        2.12154628      -1.21967574       2.93976017
C        2.54173177      -0.62797399       4.25245408
O        2.58612401       0.59443490       4.33615778
N        2.79120177      -1.53641702       5.25729890
C        3.16486989      -1.22997417       6.57002069
C        3.31571007      -2.29259003       7.45212194
C        3.68082942      -2.03325872       8.77251866
C        3.89531313      -0.71865323       9.17676696
Br       4.39323139      -0.39685603      10.97434772
C        3.73417135       0.29776893       8.23859668
C        3.95195403       1.74441796       8.56943658
N        3.36855496       0.04142247       6.95484711
H        4.73823989      -3.59659451       1.88695250
H        3.70663706      -5.02699754       2.27394393
H        4.92573489      -4.46077653       3.42018991
H        2.25133826      -3.97447004       0.91146258
H        0.86826490      -2.53793790      -0.50151981
H        1.04980876       0.59317858       2.44245699
H        2.71628773      -2.51566999       5.01590689
H        3.14627444      -3.31646615       7.13566127
H        3.79304581      -2.85727388       9.47161283
H        3.79351837       2.37202515       7.68575650
H        4.97812910       1.91048150       8.91167959
H        3.24852569       2.07276473       9.34058621
