97
Properties=species:S:1:pos:R:3 pbc="F F F"
C        0.00000000       0.00000000       0.00000000
C        0.86708897       0.86708897      -0.86708897
C        1.68769796       1.87500320      -0.41535852
C        2.25759094       2.46574551      -1.56802256
C        1.76023042       1.77230758      -2.65533367
O        0.93458473       0.77006118      -2.22275103
C        1.94399644       1.98427749      -4.07587885
O        2.23306508       3.08709256      -4.53207941
N        1.83750142       0.83311923      -4.82443484
C        1.99029675       0.74072843      -6.20628438
C        1.70864273       1.79058327      -7.06890766
C        1.88687073       1.60361753      -8.43790101
C        2.37336763       0.38716258      -8.90467773
Br       2.64386646       0.17999931     -10.76689955
C        2.64408756      -0.62046016      -7.97849240
C        3.24186826      -1.93638604      -8.38312662
N        2.41482728      -0.46291923      -6.64437002
H        1.84163028       2.16541556       0.61427593
H        2.94292881       3.30161753      -1.61751399
H        1.87965323      -0.05347499      -4.33949571
H        1.32717411       2.73986519      -6.70898076
H        1.65299766       2.41463570      -9.12225922
H        3.44676060      -2.55522932      -7.50288996
H        4.19530105      -1.78018054      -8.89874885
H        2.55783025      -2.48936305      -9.03298605
C       -0.86708897      -0.86708897      -0.86708897
C       -0.66618475      -1.10438320      -2.20749172
C       -1.74843685      -1.91145398      -2.63146818
C       -2.53886640      -2.13013301      -1.51887226
O       -1.97927744      -1.51809146      -0.43002805
C       -3.80328980      -2.82175996      -1.37910302
O       -4.57617372      -2.95162047      -2.32444286
N       -4.00010514      -3.36572894      -0.12922140
C       -5.11286508      -4.10006918       0.27562470
C       -6.37546222      -3.92107386      -0.27159759
C       -7.43051462      -4.69863711       0.20076246
C       -7.18975760      -5.65595658       1.18050625
Br      -8.63670671      -6.72464654       1.77058793
C       -5.89291508      -5.78711364       1.67790892
C       -5.52566238      -6.84267613       2.67972968
N       -4.87008421      -4.98826552       1.26207166
H        0.14587022      -0.72632044      -2.81231969
H       -1.94701976      -2.28926831      -3.62577225
H       -3.19938437      -3.44931894       0.48302936
H       -6.56759643      -3.17424398      -1.03417966
H       -8.42599789      -4.55377760      -0.21011710
H       -4.44918810      -6.82673885       2.88150571
H       -5.76823325      -7.83778449       2.29214838
H       -6.04911314      -6.67806782       3.62572771
C       -0.86708897       0.86708897       0.86708897
C       -1.29895146       0.54570313       2.13340510
C       -2.13811629       1.60808177       2.54516096
C       -2.15675595       2.52238080       1.50873492
O       -1.34964578       2.08358330       0.49416786
C       -2.89825856       3.75591991       1.34997430
O       -3.95546345       3.95456854       1.94220507
N       -2.26714034       4.68037923       0.54753592
C       -2.74049900       5.95474561       0.24206494
C       -4.09143490       6.26997031       0.20672845
C       -4.47105954       7.57143646      -0.11410673
C       -3.49245216       8.52945473      -0.35669895
Br      -4.04114401      10.29839993      -0.74877862
C       -2.15335060       8.14303385      -0.29426466
C       -1.03093553       9.12444042      -0.46676712
N       -1.77823859       6.85781477      -0.03977530
H       -1.05896595      -0.35185280       2.68565677
H       -2.67787320       1.70638570       3.47780143
H       -1.28748702       4.53804585       0.34014109
H       -4.85749930       5.52528179       0.39323897
H       -5.52709368       7.82329575      -0.16049684
H       -0.06307440       8.63742167      -0.30607483
H       -1.11357624       9.93203454       0.26825859
H       -1.03451353       9.54374592      -1.47680620
C        0.86708897      -0.86708897       0.86708897
C        0.83458835      -2.24227291       0.90119842
C        1.75989166      -2.63383399       1.89763336
C        2.31273060      -1.47216737       2.40297369
O        1.78998443      -0.39093248       1.74648004
C        3.25607881      -1.26608498       3.48198899
O        3.37938392      -2.07726428       4.39558886
N        4.02738264      -0.13485515       3.33281770
C        5.02555785       0.29365667       4.20540837
C        5.01406538       0.00957805       5.56364633
C        6.05363844       0.48513513       6.35988595
C        7.09222694       1.20064971       5.77363071
Br       8.51062534       1.79662811       6.87676809
C        7.04244645       1.44049085       4.40016419
C        8.15433969       2.13681669       3.67108583
N        5.99808814       1.02909975       3.62728968
H        0.20744598      -2.88529173       0.30003219
H        2.00002538      -3.63671975       2.22531520
H        4.04961514       0.30742723       2.42348605
H        4.20498381      -0.54621825       6.02481801
H        6.04437390       0.28177082       7.42728951
H        7.95756991       2.15690324       2.59375457
H        9.09977564       1.60406938       3.81816311
H        8.25617766       3.16989237       4.01516796
