150
Properties=species:S:1:pos:R:3 pbc="F F F"
C        1.79168695       1.79168695      -1.79168695
C        1.22066886       2.81884594      -2.53828707
C        2.03231142       3.62345469      -3.34420831
C        3.41364900       3.40291559      -3.41484867
S        4.38683463       4.48609549      -4.45376466
C        5.65064743       3.33661391      -5.09687736
C        6.52925932       4.03881554      -6.12956146
C        7.60884067       3.09546755      -6.62788950
O        7.66206228       1.91974332      -6.26999389
C        8.63707952       3.61053742      -7.58204760
C        8.64507849       4.93482630      -8.03752163
C        9.63637261       5.36536141      -8.92748440
C       10.61615120       4.47466232      -9.36313896
C       10.61805931       3.15515144      -8.91916078
C        9.62960203       2.72529873      -8.02945876
C        3.97325519       2.37734705      -2.64468069
C        3.16479712       1.56827830      -1.83878825
H        0.15062825       3.00480780      -2.49955465
H        1.57300774       4.42458030      -3.91898692
H        5.15254046       2.47010201      -5.54656280
H        6.27647464       2.98560563      -4.27059400
H        7.01290778       4.90848468      -5.67050143
H        5.92509752       4.35841350      -6.98635107
H        7.89617935       5.65424152      -7.71909753
H        9.63478529       6.39640240      -9.27379927
H       11.37793186       2.45435411      -9.25427207
H        9.63976336       1.69126585      -7.68668514
H        5.04312417       2.19284807      -2.64011703
H        3.61927534       0.77414595      -1.25185256
C       11.63347550       4.92197016     -10.27887199
C       12.48548460       5.29659047     -11.04579839
Br      13.86311126       5.90231983     -12.28585352
C       -1.79168695      -1.79168695      -1.79168695
C       -1.20818642      -2.64788445      -2.72173102
C       -2.01989375      -3.45323689      -3.52684378
C       -3.41500580      -3.40293579      -3.41347167
S       -4.38417114      -4.47715044      -4.46537320
C       -5.84024807      -3.43216139      -4.81172925
C       -6.75817969      -4.11961357      -5.81984306
C       -7.99120357      -3.27069806      -6.07029609
O       -8.13029527      -2.15885297      -5.56265125
C       -9.06766145      -3.80148746      -6.96051565
C       -8.98459166      -5.05655582      -7.57627893
C      -10.02599476      -5.50655597      -8.39666770
C      -11.14680658      -4.70392203      -8.60322387
C      -11.24056044      -3.45352733      -7.99828376
C      -10.20190970      -3.00452983      -7.17791999
C       -3.98409503      -2.54950566      -2.46168225
C       -3.17603051      -1.74015773      -1.65567543
H       -0.12780333      -2.69996008      -2.82722728
H       -1.55010212      -4.12010102      -4.24637183
H       -5.50355944      -2.46457467      -5.20107116
H       -6.39177459      -3.25824681      -3.88265287
H       -7.07907645      -5.08953271      -5.42328474
H       -6.23539629      -4.26189122      -6.77257458
H       -8.12540544      -5.70646540      -7.43764757
H       -9.95256611      -6.48364617      -8.86877469
H      -12.11058580      -2.82148397      -8.15448827
H      -10.28457309      -2.02517954      -6.70796172
H       -5.05866007      -2.50371006      -2.31371915
H       -3.63874127      -1.08093933      -0.92559324
C      -12.21524607      -5.17085765      -9.44821392
C      -13.11006414      -5.56191623     -10.15589309
Br     -14.55690929      -6.19422488     -11.30015045
C       -1.79168695       1.79168695       1.79168695
C       -3.17568824       1.75868393       1.64342970
C       -3.97876724       2.56802007       2.45318712
C       -3.40578991       3.41798264       3.40764071
S       -4.50044012       4.40846219       4.41779246
C       -3.53016273       5.94246312       4.61151287
C       -4.35007826       6.99855355       5.34900450
C       -3.52497445       8.25641296       5.55081030
O       -2.39066136       8.37207060       5.08906753
C       -4.10852424       9.38789974       6.33324057
C       -5.39220327       9.33467078       6.89055237
C       -5.88687882      10.42267016       7.61966945
C       -5.10201158      11.56201259       7.78992831
C       -3.82501673      11.62802258       7.23933222
C       -3.33012298      10.54150221       6.51273433
C       -2.01428330       3.42585997       3.55513966
C       -1.20668803       2.61962347       2.74555217
H       -3.63988631       1.10814310       0.90696129
H       -5.05865820       2.52901398       2.32890278
H       -3.23785074       6.31008368       3.62127085
H       -2.62180411       5.72796708       5.18290308
H       -4.64452954       6.61493970       6.33242466
H       -5.24276543       7.25844466       4.76865201
H       -6.03029341       8.46315693       6.77606807
H       -6.88441356      10.37056509       8.05000831
H       -3.20694254      12.51261773       7.36699776
H       -2.32937573      10.60184864       6.08648998
H       -1.52858631       4.04160940       4.30589356
H       -0.12747262       2.64427883       2.87352239
C       -5.61525986      12.67875602       8.54030176
C       -6.04510529      13.61402865       9.16873952
Br      -6.74012900      15.12628538      10.18487023
C        1.79168695      -1.79168695       1.79168695
C        3.15153045      -1.90936779       1.51690364
C        3.95470744      -2.71804643       2.32722055
C        3.40487555      -3.41770635       3.40883135
S        4.50053666      -4.41672969       4.40942842
C        3.42007329      -5.82341887       4.84064655
C        4.21056627      -6.88480501       5.60226503
C        3.29963032      -8.03148337       6.00108402
O        2.11938760      -8.07535115       5.65706074
C        3.85354593      -9.14013781       6.83598081
C        5.18565407      -9.16432364       7.26744870
C        5.65013077     -10.22588113       8.05320653
C        4.78661500     -11.26193262       8.40540487
C        3.46064529     -11.25047014       7.98125609
C        2.99606867     -10.19012997       7.19816089
C        2.03978104      -3.27445094       3.68105096
C        1.23186618      -2.46838156       2.87161593
H        3.59719337      -1.37694115       0.68085617
H        5.01609016      -2.79750782       2.10297699
H        2.99924496      -6.24793315       3.92202717
H        2.59577235      -5.46947054       5.46743139
H        4.63427893      -6.44526725       6.51234772
H        5.01436270      -7.28299516       4.97250423
H        5.88512495      -8.37413718       7.01025628
H        6.68599469     -10.23427789       8.38471438
H        2.78113790     -12.05441556       8.25100458
H        1.95668464     -10.18921375       6.87181596
H        1.57735910      -3.76898432       4.52974585
H        0.17280980      -2.37443361       3.09803043
C        5.26901450     -12.35190108       9.21340206
C        5.67302407     -13.26474967       9.89009972
Br       6.32627339     -14.74074864      10.98426259
C       -0.00445707       0.01189536      -1.78238275
H       -0.66409135       0.67374010      -2.43557963
H        0.65740317      -0.63156657      -2.45157240
C       -0.90989263      -0.90692880      -0.91072765
C        0.90977584       0.90977584      -0.90977584
C       -0.00465871       1.77757030       0.00794375
H       -0.66225468       2.44313916      -0.64384735
H        0.64322798       2.43503045       0.67728295
C       -1.78241447       0.00034974      -0.00472694
H       -2.45427497      -0.65498947       0.64260836
H       -2.43311707       0.67328779      -0.65473579
C       -0.91132561       0.90220522       0.91563759
C       -0.01476271      -0.02253852       1.78660255
H       -0.67934791      -0.69751639       2.42135241
H        0.63392994       0.61504881       2.47327442
C        0.01484550      -1.77751727      -0.01636693
H        0.67870853      -2.42144646      -0.68295456
H       -0.62264859      -2.45592969       0.64226336
C        1.78714474       0.01002794       0.00389507
H        2.44202412       0.67113390       0.66197326
H        2.45385902      -0.65136977      -0.64189061
C        0.91606151      -0.90478549       0.90901405
