121
Properties=species:S:1:pos:R:3 pbc="F F F"
C        0.00000000       0.00000000       0.00000000
C        0.88178292       0.88178292      -0.88178292
C        0.31076484       1.90894192      -1.62838305
C        1.12240739       2.71355066      -2.43430429
C        2.50374497       2.49301157      -2.50494465
S        3.47693060       3.57619146      -3.54386063
C        4.74074341       2.42670989      -4.18697334
C        5.61935529       3.12891152      -5.21965743
C        6.69893664       2.18556352      -5.71798548
O        6.75215826       1.00983929      -5.36008986
C        7.72717550       2.70063340      -6.67214358
C        7.73517446       4.02492228      -7.12761760
C        8.72646859       4.45545739      -8.01758038
C        9.70624717       3.56475830      -8.45323494
Br      11.04143123       4.15182605      -9.65508584
C        9.70815528       2.24524742      -8.00925676
C        8.71969801       1.81539471      -7.11955473
C        3.06335117       1.46744303      -1.73477667
C        2.25489309       0.65837428      -0.92888423
H       -0.75927578       2.09490378      -1.58965062
H        0.66310372       3.51467628      -3.00908290
H        4.24263644       1.56019799      -4.63665878
H        5.36657062       2.07570161      -3.36068998
H        6.10300376       3.99858066      -4.76059741
H        5.01519350       3.44850948      -6.07644704
H        6.98627533       4.74433750      -6.80919351
H        8.72488127       5.48649837      -8.36389525
H       10.46802784       1.54445008      -8.34436804
H        8.72985933       0.78136183      -6.77678112
H        4.13322015       1.28294405      -1.73021301
H        2.70937131      -0.13575808      -0.34194853
C       -0.88178292      -0.88178292      -0.88178292
C       -1.11997291      -0.52244833      -2.20566856
C       -1.92812478      -1.33314025      -3.00899731
C       -2.50745906      -2.49986865      -2.49437347
S       -3.51361901      -3.49371904      -3.58964465
C       -4.80182793      -4.10348988      -2.44910883
C       -5.86380357      -4.88557298      -3.21854769
C       -6.90833944      -5.43179725      -2.26234895
O       -6.88746471      -5.17516820      -1.05945450
C       -7.99448566      -6.30681408      -2.79865274
C       -8.08834649      -6.64494173      -4.15442611
C       -9.12436315      -7.47378277      -4.60136043
C      -10.06566020      -7.96202958      -3.69655063
Br     -11.46219750      -9.08002977      -4.30611586
C       -9.98440578      -7.63170860      -2.34654508
C       -8.94940689      -6.80561443      -1.89962613
C       -2.24361394      -2.85510145      -1.16685547
C       -1.43764086      -2.04581280      -0.35869794
H       -0.68205907       0.38020397      -2.62342353
H       -2.10239215      -1.04202511      -4.04244563
H       -5.25660914      -3.25087476      -1.93200930
H       -4.34422527      -4.75791678      -1.70082015
H       -5.39488937      -5.72836863      -3.73892383
H       -6.36408548      -4.23293297      -3.94313157
H       -7.37269668      -6.28107620      -4.88603345
H       -9.18727419      -7.73194853      -5.65605217
H      -10.71436367      -8.00770389      -1.63477840
H       -8.89331312      -6.55339084      -0.84129832
H       -2.64169515      -3.76866188      -0.73602018
H       -1.24898613      -2.33783898       0.67126335
C       -0.88178292       0.88178292       0.88178292
C       -2.08293060       0.38469810       1.38046111
C       -2.88684257       1.19604457       2.18737521
C       -2.50076172       2.50703826       2.49390121
S       -3.57376844       3.47590099       3.54731327
C       -3.37653918       5.14435572       2.83353174
C       -4.32536370       6.12776542       3.51479513
C       -4.12613570       7.52354672       2.95280322
O       -3.35099243       7.74698778       2.02410720
C       -4.89508876       8.65966853       3.54519519
C       -5.79666233       8.48804247       4.60300954
C       -6.48653676       9.58953802       5.12343157
C       -6.27795510      10.85916973       4.58711558
Br      -7.21265683      12.34207439       5.29361190
C       -5.38576431      11.04265957       3.53423557
C       -4.69562783       9.94359955       3.01542007
C       -1.28231706       2.98468532       1.99856848
C       -0.47590575       2.17735648       1.18888936
H       -2.40189851      -0.62882407       1.15220419
H       -3.82067905       0.79313391       2.57304993
H       -3.58068821       5.10120621       1.75759879
H       -2.34516730       5.48107506       2.97671984
H       -4.11791192       6.15371136       4.59055854
H       -5.36623052       5.83009342       3.34382608
H       -5.98358428       7.51287022       5.04335184
H       -7.18316966       9.44585020       5.94625502
H       -5.21776997      12.02893686       3.11013913
H       -3.99874023      10.09702450       2.19223755
H       -0.92551961       3.98133928       2.23951832
H        0.46480593       2.56954854       0.81081915
C        0.88178292      -0.88178292       0.88178292
C        1.20630994      -2.17164880       0.47013107
C        2.01398719      -2.97516456       1.28111059
C        2.49464334      -2.49942331       2.50763454
S        3.53713103      -3.58038010       3.47947156
C        3.02808867      -3.14802325       5.17831472
C        3.71583405      -4.06492174       6.18716846
C        3.32805652      -3.67310385       7.60132527
O        2.50766448      -2.78524679       7.82917614
C        3.96152142      -4.38777969       8.75065136
C        4.90303070      -5.40955035       8.57513329
C        5.46920165      -6.04162007       9.68868463
C        5.09425487      -5.65545573      10.97452982
Br       5.86170656      -6.51290237      12.47373419
C        4.15799137      -4.64235322      11.16231486
C        3.59369575      -4.00996096      10.05099074
C        2.17301807      -1.19467268       2.89788012
C        1.36327493      -0.38800068       2.09087599
H        0.84136697      -2.56065072      -0.47673907
H        2.26253074      -3.97934551       0.94498665
H        1.93906099      -3.23923765       5.26119457
H        3.30523401      -2.11021853       5.38750966
H        4.80317418      -3.97208001       6.08692763
H        3.41445382      -5.10538814       6.02030807
H        5.21655697      -5.73562683       7.58762254
H        6.20091751      -6.83277966       9.54157772
H        3.85990300      -4.33567222      12.16127075
H        2.86268959      -3.21757190      10.20774079
H        2.55236765      -0.77121829       3.82279126
H        1.12177442       0.62113755       2.41492490
