198
Properties=species:S:1:pos:R:3 pbc="F F F"
C        1.79133652       1.79133652      -1.79133652
C        2.10436395       3.07938375      -1.37635054
C        2.92048954       3.87732031      -2.17683669
C        3.39708407       3.42147553      -3.41741445
C        3.07255911       2.11926733      -3.81873897
C        2.28194331       1.30237894      -3.00140511
C        4.26741227       4.31446366      -4.27367396
O        3.56562937       5.15637280      -5.21038066
C        2.97717699       6.26182083      -4.68248638
O        2.74916513       6.42424998      -3.49735201
C        2.75358579       7.32531485      -5.70990569
C        2.85916248       6.98980089      -7.06698467
C        2.74175918       7.97986890      -8.03094190
N        2.48384046       9.26051673      -7.66700245
C        2.36007235       9.59662190      -6.37547063
C        2.10445447      10.93468067      -6.08578126
C        1.97902211      11.40667970      -4.77803485
C        2.11839688      10.51675340      -3.73009835
C        2.37365378       9.17330826      -3.99257006
C        2.49401361       8.67436362      -5.32350947
C        2.92051001       7.74790394      -9.49206085
C        3.21953915       6.48382956     -10.03855240
C        3.40857633       6.29712322     -11.41446409
C        3.30274652       7.37263833     -12.28769731
C        3.00573327       8.63368798     -11.78594494
C        2.81843313       8.81477159     -10.41016475
H        1.72570000       3.47781429      -0.43900580
H        3.17329150       4.87445024      -1.82089989
H        3.44474562       1.72275356      -4.76061153
H        2.05350768       0.28785766      -3.31624765
H        4.93891169       3.68659991      -4.87224424
H        4.92829855       4.92907729      -3.64877042
H        3.04976293       5.96287887      -7.35229357
H        2.00303938      11.63852673      -6.90979301
H        1.77911431      12.45804745      -4.59657242
H        2.47756360       8.51813351      -3.13321746
H        3.32095374       5.60372679      -9.41042790
H        3.64180495       5.30725983     -11.79924905
H        3.45206624       7.22859075     -13.35438362
H        2.92295814       9.48273666     -12.45972565
H        2.59285538       9.81965557     -10.05395213
C        2.00348431      10.97470617      -2.36970342
C        1.90724503      11.35824161      -1.23037267
Br       1.75163425      11.97838598       0.61182880
C       -1.79133652      -1.79133652      -1.79133652
C       -1.42791841      -2.01987254      -3.11230729
C       -2.22751514      -2.83608307      -3.91104833
C       -3.41860875      -3.39693740      -3.42042789
C       -3.76823485      -3.15692272      -2.08540783
C       -2.94962655      -2.36621894      -1.26988188
C       -4.27605965      -4.26544747      -4.31404278
O       -5.28747787      -3.57233690      -5.07256805
C       -4.84588037      -2.90473539      -6.17086845
O       -3.68304932      -2.60892125      -6.37879655
C       -5.93587789      -2.68250014      -7.17042830
C       -7.26733744      -2.87336166      -6.77524894
C       -8.28512780      -2.75737668      -7.71006550
N       -7.99997152      -2.41934910      -8.99203902
C       -6.73480968      -2.21365780      -9.38369740
C       -6.52653727      -1.87892733     -10.71945180
C       -5.25221718      -1.66415070     -11.24736878
C       -4.15470010      -1.79290482     -10.41764371
C       -4.33556509      -2.12614768      -9.07781932
C       -5.63189170      -2.33835624      -8.52163877
C       -9.72210083      -3.02151284      -7.41686113
C      -10.18820566      -3.40906052      -6.14465495
C      -11.54199340      -3.67691165      -5.90125859
C      -12.47308394      -3.56369286      -6.92630536
C      -12.05135493      -3.18058617      -8.19342509
C      -10.69732707      -2.91474745      -8.43129495
H       -0.53161994      -1.57496833      -3.53593181
H       -1.91107673      -3.02168093      -4.93588398
H       -4.66946220      -3.59550359      -1.66314492
H       -3.22300222      -2.20367402      -0.23093675
H       -4.80849886      -4.99630970      -3.69294728
H       -3.65198840      -4.86296079      -4.99119706
H       -7.49027558      -3.12790680      -5.74675299
H       -7.38934636      -1.78564502     -11.37636774
H       -5.13456703      -1.40443422     -12.29473293
H       -3.43986573      -2.21775191      -8.47129694
H       -9.51180212      -3.52089665      -5.30240965
H      -11.86398214      -3.97725657      -4.90707512
H      -13.52251977      -3.77407296      -6.73844788
H      -12.77081149      -3.09118092      -9.00342805
H      -10.40423481      -2.62276332      -9.43946495
C       -2.82663468      -1.58661691     -10.93464230
C       -1.71437989      -1.41385079     -11.36762862
Br       0.08404203      -1.13450258     -12.06773088
C       -1.79133652       1.79133652       1.79133652
C       -2.59151518       1.20502391       2.76355915
C       -3.38524121       2.01338778       3.57601755
C       -3.42682933       3.40695331       3.40219140
C       -2.61193063       3.98073779       2.41789699
C       -1.78707985       3.17544406       1.62320346
C       -4.30977783       4.25877438       4.28699768
O       -5.65079344       4.47704755       3.80454185
C       -6.51243853       3.43916727       3.96987841
O       -6.17628519       2.29206525       4.20241667
C       -7.93963143       3.88602091       3.96315398
C       -8.24492272       5.17286209       3.49816323
C       -9.55018087       5.63648232       3.56590679
N      -10.53602605       4.83512249       4.04021110
C      -10.26646469       3.59486482       4.47083537
C      -11.33366850       2.83995117       4.95129673
C      -11.17133335       1.54518314       5.44722017
C       -9.90542575       0.99147158       5.46835130
C       -8.82140588       1.72495467       4.99317154
C       -8.97317651       3.04484719       4.47386300
C       -9.96821587       7.01344722       3.17881171
C       -9.06731064       7.98194470       2.69266577
C       -9.48149799       9.27867314       2.35999252
C      -10.81376474       9.64614096       2.50317646
C      -11.73191588       8.71702640       2.97642391
C      -11.31255355       7.42286036       3.30795557
H       -2.61092934       0.12767874       2.90391200
H       -3.98580006       1.53514807       4.34769351
H       -2.59810192       5.05836837       2.27164042
H       -1.14599865       3.63541027       0.87620408
H       -3.85686988       5.25278844       4.38809752
H       -4.34604981       3.85354197       5.30655447
H       -7.45621337       5.80258529       3.10613671
H      -12.33008650       3.27786508       4.94340755
H      -12.03062906       0.99120853       5.81189659
H       -7.84902453       1.24412383       5.03576622
H       -8.01211384       7.76058984       2.56240475
H       -8.75663725      10.00040935       1.99126723
H      -11.13463560      10.65249430       2.24791070
H      -12.77632808       8.99438564       3.09470673
H      -12.06078511       6.72416792       3.68151005
C       -9.70420324      -0.33856893       5.98225959
C       -9.53567937      -1.45247786       6.41265779
Br      -9.26319055      -3.25357438       7.10857527
C        1.79133652      -1.79133652       1.79133652
C        3.15606362      -1.54259759       1.86143703
C        3.95647401      -2.34059957       2.67757296
C        3.41824391      -3.42075928       3.39697085
C        2.03970123      -3.65547033       3.31539385
C        1.22693768      -2.83463547       2.52415422
C        4.31263323      -4.28082225       4.26209442
O        4.90301138      -5.42178684       3.60758461
C        5.96459088      -5.15472078       2.80217255
O        6.24665924      -4.05021715       2.37389073
C        6.83374669      -6.35487567       2.60018396
C        6.34032981      -7.61726896       2.95834927
C        7.16252100      -8.72975225       2.86029673
N        8.42483853      -8.60612361       2.38039750
C        8.90726120      -7.41041518       2.01448850
C       10.21621220      -7.36804448       1.54065972
C       10.83356749      -6.17771397       1.15245521
C       10.12402355      -4.99558495       1.24564014
C        8.81338077      -5.01052762       1.71562370
C        8.16576517      -6.22006959       2.10605195
C        6.76788743     -10.10023367       3.29235369
C        5.50376290     -10.39963026       3.83852796
C        5.16640866     -11.69233281       4.26142217
C        6.08615512     -12.72768364       4.14924340
C        7.34165292     -12.47134390       3.61236937
C        7.67375440     -11.17766794       3.19194713
H        3.61272909      -0.73729726       1.29249374
H        5.01921943      -2.11269430       2.73672791
H        1.58330477      -4.46636493       3.87844101
H        0.15642939      -3.01636767       2.48481593
H        3.72195789      -4.67987470       5.09592325
H        5.10002476      -3.67591598       4.73020552
H        5.32646877      -7.71218304       3.32628356
H       10.77939950      -8.29711302       1.47484659
H       11.85604232      -6.18947924       0.78821262
H        8.30294487      -4.05406254       1.77190717
H        4.74186809      -9.63503844       3.95820190
H        4.18212816     -11.88466045       4.68152522
H        5.82573002     -13.72959968       4.47971092
H        8.06993338     -13.27333193       3.52215515
H        8.67010441     -11.01461111       2.78174756
C       10.73629166      -3.75013885       0.86146339
C       11.24906620      -2.70707774       0.53971537
Br      12.07817926      -1.02053614       0.01947602
C       -0.00445707       0.01189536      -1.78238275
H       -0.66409135       0.67374010      -2.43557963
H        0.65740317      -0.63156657      -2.45157240
C       -0.90989263      -0.90692880      -0.91072765
C        0.90977584       0.90977584      -0.90977584
C       -0.00465871       1.77757030       0.00794375
H       -0.66225468       2.44313916      -0.64384735
H        0.64322798       2.43503045       0.67728295
C       -1.78241447       0.00034974      -0.00472694
H       -2.45427497      -0.65498947       0.64260836
H       -2.43311707       0.67328779      -0.65473579
C       -0.91132561       0.90220522       0.91563759
C       -0.01476271      -0.02253852       1.78660255
H       -0.67934791      -0.69751639       2.42135241
H        0.63392994       0.61504881       2.47327442
C        0.01484550      -1.77751727      -0.01636693
H        0.67870853      -2.42144646      -0.68295456
H       -0.62264859      -2.45592969       0.64226336
C        1.78714474       0.01002794       0.00389507
H        2.44202412       0.67113390       0.66197326
H        2.45385902      -0.65136977      -0.64189061
C        0.91606151      -0.90478549       0.90901405
