177
Properties=species:S:1:pos:R:3 pbc="F F F"
C        0.00000000       0.00000000       0.00000000
C        0.88143249       0.88143249      -0.88143249
C        1.19445993       2.16947973      -0.46644651
C        2.01058552       2.96741628      -1.26693266
C        2.48718005       2.51157150      -2.50751042
C        2.16265508       1.20936331      -2.90883495
C        1.37203929       0.39247492      -2.09150109
C        3.35750825       3.40455963      -3.36376994
O        2.65572535       4.24646877      -4.30047663
C        2.06727297       5.35191680      -3.77258236
O        1.83926110       5.51434596      -2.58744798
C        1.84368177       6.41541082      -4.80000166
C        1.94925846       6.07989687      -6.15708064
C        1.83185516       7.06996488      -7.12103787
N        1.57393644       8.35061271      -6.75709842
C        1.45016833       8.68671788      -5.46556660
C        1.19455045      10.02477665      -5.17587723
C        1.06911809      10.49677568      -3.86813083
C        1.20849286       9.60684938      -2.82019433
C        1.46374975       8.26340423      -3.08266604
C        1.58410958       7.76445960      -4.41360545
C        2.01060598       6.83799992      -8.58215683
C        2.30963513       5.57392554      -9.12864838
C        2.49867230       5.38721920     -10.50456007
C        2.39284249       6.46273431     -11.37779328
C        2.09582925       7.72378396     -10.87604092
C        1.90852910       7.90486757      -9.50026072
H        0.81579597       2.56791026       0.47089822
H        2.26338748       3.96454622      -0.91099587
H        2.53484159       0.81284954      -3.85070751
H        1.14360366      -0.62204636      -2.40634362
H        4.02900766       2.77669588      -3.96234022
H        4.01839452       4.01917326      -2.73886640
H        2.13985890       5.05297485      -6.44238955
H        1.09313536      10.72862271      -5.99988899
H        0.86921029      11.54814342      -3.68666839
H        1.56765958       7.60822949      -2.22331344
H        2.41104971       4.69382276      -8.50052388
H        2.73190093       4.39735581     -10.88934502
H        2.54216221       6.31868673     -12.44447959
H        2.01305412       8.57283264     -11.54982162
H        1.68295136       8.90975154      -9.14404810
C        1.09358028      10.06480214      -1.45979940
C        0.99734100      10.44833758      -0.32046865
Br       0.84173022      11.06848195       1.52173282
C       -0.88143249      -0.88143249      -0.88143249
C       -1.88922619      -0.30060890      -1.64055108
C       -2.68386713      -1.10622334      -2.45484400
C       -2.51580362      -2.50067810      -2.48978025
C       -1.49340318      -3.06858240      -1.71886775
C       -0.67055035      -2.25894338      -0.92652157
C       -3.40311008      -3.35288498      -3.36984276
O       -4.61548830      -3.83268993      -2.75449252
C       -5.62065772      -2.92440522      -2.64670919
O       -5.47670461      -1.71920639      -2.74514404
C       -6.95945876      -3.57888844      -2.52074704
C       -7.01972549      -4.94678271      -2.21972777
C       -8.24811918      -5.58950418      -2.18523454
N       -9.39071234      -4.89126878      -2.39966645
C       -9.35415590      -3.57891992      -2.66937699
C      -10.57131066      -2.93768627      -2.88620741
C      -10.65682573      -1.57958765      -3.19761121
C       -9.49222462      -0.84290439      -3.30040755
C       -8.26219920      -1.45990639      -3.08771443
C       -8.15950668      -2.84408740      -2.75858055
C       -8.41882364      -7.05254377      -1.95939532
C       -7.33577150      -7.92893198      -1.74750557
C       -7.52144365      -9.30564688      -1.56336104
C       -8.80030014      -9.84836164      -1.58470831
C       -9.89314107      -9.01485726      -1.78765579
C       -9.70189031      -7.64002006      -1.97174703
H       -2.07057942       0.77040945      -1.61263804
H       -3.45159914      -0.62737503      -3.05995540
H       -1.31659252      -4.14149814      -1.74030797
H        0.13076059      -2.71052870      -0.34813281
H       -2.84444525      -4.24509000      -3.67850852
H       -3.64587557      -2.82778501      -4.30277360
H       -6.10520451      -5.49587919      -2.03413961
H      -11.48903834      -3.51843317      -2.81417553
H      -11.62644968      -1.11896319      -3.35860923
H       -7.37889084      -0.83619838      -3.18411329
H       -6.31120079      -7.56957516      -1.72462040
H       -6.66095184      -9.95149804      -1.40615187
H       -8.94427878     -10.91632284      -1.44472692
H      -10.89799867      -9.42902487      -1.80868484
H      -10.58299243      -7.01964788      -2.13411070
C       -9.54697747       0.55798892      -3.62919327
C       -9.59283299       1.73123707      -3.90455131
Br      -9.66697748       3.62828010      -4.34978197
C       -0.88143249       0.88143249       0.88143249
C       -1.03407452       0.56991684       2.22639481
C       -1.82874380       1.38424522       3.03194544
C       -2.51541571       2.48929460       2.50155167
C       -2.34823984       2.78910762       1.14350587
C       -1.52317818       1.99399602       0.33884110
C       -3.38440160       3.34642008       3.39501614
O       -4.76396166       2.94037845       3.49833064
C       -5.00575549       1.87686284       4.30915381
O       -4.15662798       1.09243224       4.69199483
C       -6.42121319       1.84687343       4.79100763
C       -7.37089743       2.65938862       4.15594992
C       -8.66793685       2.71083858       4.64408248
N       -9.02940204       1.94731255       5.70493298
C       -8.14023320       1.14956795       6.31265166
C       -8.58956099       0.40509306       7.40055027
C       -7.74986183      -0.44185443       8.12601720
C       -6.42212286      -0.54330371       7.75671741
C       -5.94765077       0.18994211       6.67222715
C       -6.79586009       1.05131994       5.91499460
C       -9.73059944       3.60171463       4.09844865
C       -9.51729379       4.47873157       3.01618369
C      -10.52644012       5.32556169       2.53844976
C      -11.78346118       5.31957137       3.13033754
C      -12.03220869       4.46572934       4.19771609
C      -11.02006890       3.62208252       4.67150598
H       -0.54561218      -0.29659306       2.66378889
H       -1.91478475       1.13589188       4.08825294
H       -2.84329589       3.65171267       0.70339007
H       -1.38751587       2.24898718      -0.70860214
H       -3.39688080       4.37014773       3.00101524
H       -2.94819493       3.42929020       4.39894906
H       -7.08040229       3.25506940       3.29975162
H       -9.63303652       0.49049519       7.69811534
H       -8.14125745      -1.00478772       8.96755238
H       -4.89626533       0.07591155       6.42702563
H       -8.55659567       4.53581373       2.51298695
H      -10.32357348       5.99168720       1.70334107
H      -12.56530941       5.97819106       2.76182808
H      -13.01128039       4.45447491       4.66995308
H      -11.25148276       2.97104837       5.51421987
C       -5.52878575      -1.40150930       8.49090538
C       -4.78061591      -2.12025648       9.10578780
Br      -3.57088857      -3.28240988      10.10000067
C        0.88143249      -0.88143249       0.88143249
C        2.21628048      -0.54591936       1.06818633
C        3.01544085      -1.34508602       1.88440759
C        2.50997645      -2.50928343       2.48700209
C        1.16113765      -2.83094120       2.28877449
C        0.34631319      -2.01172449       1.49797761
C        3.40384769      -3.36737402       3.35461611
O        4.11956242      -4.41432764       2.66878070
C        5.21121075      -4.01710443       1.96345696
O        5.44014429      -2.86750931       1.63340144
C        6.17774821      -5.13708686       1.74425918
C        5.75488774      -6.45306625       1.97828198
C        6.66117581      -7.49664183       1.86504027
N        7.94084465      -7.25228938       1.48851353
C        8.35818239      -6.00284247       1.24142795
C        9.68979149      -5.83660084       0.86881200
C       10.24329949      -4.58165952       0.60906559
C        9.44431991      -3.46074182       0.73047483
C        8.10927973      -3.59952701       1.10101328
C        7.52691987      -4.87581188       1.35944289
C        6.33947985      -8.91883817       2.17244470
C        5.06637149      -9.34305557       2.60278198
C        4.79659163     -10.68328243       2.91057751
C        5.79525541     -11.64241845       2.79569623
C        7.06230134     -11.26231193       2.37104086
C        7.32661476      -9.92165631       2.06538633
H        2.65046506       0.32820549       0.59054844
H        4.05209988      -1.05011429       2.03671540
H        0.72803325      -3.71018166       2.76018372
H       -0.70280664      -2.26273771       1.36796985
H        2.78846939      -3.86585645       4.11371793
H        4.11098841      -2.74606795       3.91937782
H        4.72796466      -6.64368137       2.26357727
H       10.32273418      -6.71772781       0.78118506
H       11.28635994      -4.49686985       0.32079231
H        7.52746574      -2.68684174       1.18489503
H        4.24409882      -8.64309062       2.71820692
H        3.80267884     -10.97262556       3.24329736
H        5.58701456     -12.68129522       3.03701876
H        7.85185853     -12.00393892       2.27991093
H        8.33400567      -9.66133873       1.74140660
C        9.98845174      -2.15160455       0.47812553
C       10.44416214      -1.05520209       0.26678300
Br      11.18100733       0.71758796      -0.07494001
