141
Properties=species:S:1:pos:R:3 pbc="F F F"
C        0.00000000       0.00000000       0.00000000
F        3.38055381       6.12900579      -7.80916686
C        3.37486444       5.43269509      -6.66420150
C        4.53149154       5.20098028      -5.97105579
N        4.57649696       4.47834108      -4.83539067
C        3.41217197       3.98601666      -4.37662115
N        3.53291643       3.18296058      -3.24664634
C        2.62467412       2.46108982      -2.46716201
C        3.12233707       1.48252840      -1.59251851
C        2.26637439       0.70017814      -0.81046616
C        0.88629736       0.88629736      -0.88629736
C        0.36948242       1.85302264      -1.75217016
Cl      -1.32582868       2.15896205      -1.90299598
C        1.23781165       2.62318735      -2.53898903
N        2.23128757       4.19593733      -4.98217369
C        2.21156750       4.90429061      -6.13261807
N        0.99595687       5.13921411      -6.82639924
C       -0.32083893       4.92746754      -6.37746928
C       -0.69695017       5.14599787      -5.04818357
C       -2.01792741       4.96058250      -4.62999901
C       -2.99186242       4.55975116      -5.54476070
C       -2.63871330       4.35234710      -6.88053569
Cl      -3.78078725       3.86400787      -8.08365913
C       -1.31274497       4.54428555      -7.29091267
H        5.47997611       5.59056026      -6.32404546
H        4.51204441       3.09754187      -3.01176831
H        4.19424946       1.30788624      -1.51966949
H        2.68984404      -0.05212728      -0.15030210
H        0.81056942       3.36578643      -3.20299147
H        1.12387537       4.97490360      -7.82004171
H        0.03804714       5.48141767      -4.31961817
H       -2.27234192       5.13649021      -3.58809553
H       -1.05524900       4.38190991      -8.33462173
C       -4.33518406       4.38733367      -5.05551724
C       -5.46021594       4.24293403      -4.64577583
Br      -7.27929733       4.00945202      -3.98325864
F       -6.27964711      -7.71172338      -3.32735597
C       -5.54456423      -6.59127418      -3.33592262
C       -5.25020920      -5.94689847      -4.50641996
N       -4.48744969      -4.83838370      -4.56439532
C       -4.01885169      -4.35622960      -3.39972848
N       -3.17342416      -3.25872949      -3.53036971
C       -2.45580884      -2.47283786      -2.62427924
C       -1.43129706      -1.64935725      -3.11672967
C       -0.65142850      -0.86474725      -2.26084294
C       -0.88629736      -0.88629736      -0.88629736
C       -1.89932510      -1.70074953      -0.37460058
Cl      -2.26706275      -1.78223277       1.31316616
C       -2.66677276      -2.49095920      -1.24225607
N       -4.28920941      -4.91300342      -2.20718576
C       -5.03736421      -6.03763822      -2.17347375
N       -5.33692648      -6.68049184      -0.94415190
C       -5.15403936      -6.19344927       0.36339074
C       -5.33876193      -4.84531298       0.68684364
C       -5.18338373      -4.38795064       1.99868028
C       -4.84749677      -5.28126646       3.01611378
C       -4.67488381      -6.63471320       2.71542752
Cl      -4.26725371      -7.81315073       3.91352469
C       -4.83633867      -7.08423146       1.39811689
H       -5.61975421      -6.31934728      -5.45548033
H       -3.04707376      -3.06100848      -4.51327236
H       -1.21834130      -1.61969485      -4.18376904
H        0.13714958      -0.24532218      -2.67984626
H       -3.44591583      -3.11441297      -0.81901851
H       -5.20303257      -7.68293427      -1.03285384
H       -5.62380394      -4.13187135      -0.08340769
H       -5.33143149      -3.33251973       2.21170739
H       -4.70176646      -8.14111861       1.18160243
C       -4.70338284      -4.75171557       4.34743156
C       -4.58268743      -4.30821670       5.46241020
Br      -4.38753315      -3.59111654       7.26523636
F       -3.44863155       5.96213505       7.90795986
C       -3.42482432       5.30872929       6.73820742
C       -4.56186258       5.14705271       5.99461234
N       -4.59000318       4.46895049       4.83127504
C       -3.42790699       3.94971088       4.39719190
N       -3.53485724       3.19398995       3.23367616
C       -2.62467575       2.46711762       2.46113258
C       -3.12423061       1.54114458       1.53200879
C       -2.26838299       0.75597029       0.75266540
C       -0.88629736       0.88629736       0.88629736
C       -0.36771797       1.80004186       1.80691539
Cl       1.33070194       2.03521358       2.03161771
C       -1.23654537       2.57334491       2.59009775
N       -2.26410043       4.09192100       5.05337716
C       -2.26230014       4.75617971       6.22999633
N       -1.06626762       4.91878305       6.97651955
C        0.25803556       4.67353734       6.56859610
C        0.69245827       4.92631265       5.26337688
C        2.02073122       4.70606965       4.88731566
C        2.94358427       4.23491573       5.82131799
C        2.53225286       3.99213468       7.13428768
Cl       3.60876762       3.41655734       8.35909004
C        1.19953431       4.21936968       7.50261788
H       -5.50816164       5.55933768       6.32708250
H       -4.50677428       3.15475337       2.95982695
H       -4.19827718       1.41039228       1.41313571
H       -2.69371769       0.04520518       0.04909599
H       -0.80794733       3.27413191       3.29726808
H       -1.23802512       4.72302031       7.95777525
H       -0.00131657       5.31616315       4.52160326
H        2.32107767       4.91035557       3.86296592
H        0.89653980       4.02864808       8.52917437
C        4.29736403       4.02941381       5.37561707
C        5.43115459       3.85730596       5.00234255
Br       7.26439802       3.57902213       4.39878922
F        5.21053276      -8.23608151       3.87211219
C        4.74980813      -6.98496125       3.73699164
C        4.91188546      -6.05979765       4.73184451
N        4.43558690      -4.80251785       4.65212396
C        3.78703865      -4.46407356       3.52369756
N        3.24961342      -3.18055476       3.53235518
C        2.49653933      -2.43726953       2.61911710
C        1.82898381      -1.29079293       3.07760722
C        1.03013239      -0.52206404       2.22482226
C        0.88629736      -0.88629736       0.88629736
C        1.53982680      -2.02519907       0.40964936
Cl       1.42672880      -2.54513840      -1.23573784
C        2.32890722      -2.79353003       1.27755079
N        3.61453737      -5.30487117       2.48999005
C        4.08012578      -6.56853287       2.59981753
N        3.90782774      -7.50570778       1.54803470
C        3.49214991      -7.26699906       0.22494891
C        3.85823074      -6.11085888      -0.47185835
C        3.46126698      -5.90823684      -1.79684972
C        2.69404707      -6.87122298      -2.45262060
C        2.33231622      -8.04022406      -1.77837078
Cl       1.39147841      -9.29029375      -2.51489241
C        2.73805700      -8.23592173      -0.45152548
H        5.43297018      -6.31307948       5.64853216
H        3.42912287      -2.75913423       4.43309750
H        1.91441746      -0.98780891       4.11957882
H        0.52383711       0.35500430       2.61918605
H        2.82436809      -3.67278930       0.88218993
H        3.59902858      -8.39746866       1.92232344
H        4.47568553      -5.35487206       0.00852539
H        3.76165346      -4.99576255      -2.30517219
H        2.45099204      -9.15259051       0.05770009
C        2.31741288      -6.60749742      -3.81724345
C        2.00198174      -6.38662727      -4.96011508
Br       1.49195627      -6.02949891      -6.80804186
