162
Properties=species:S:1:pos:R:3 pbc="F F F"
F        4.29045784       7.03890981      -8.71907088
C        4.28476847       6.34259911      -7.57410552
C        5.44139557       6.11088431      -6.88095982
N        5.48640099       5.38824510      -5.74529469
C        4.32207599       4.89592068      -5.28652517
N        4.44282046       4.09286461      -4.15655037
C        3.53457814       3.37099384      -3.37706604
C        4.03224110       2.39243242      -2.50242253
C        3.17627841       1.61008216      -1.72037019
C        1.79620138       1.79620138      -1.79620138
C        1.27938645       2.76292666      -2.66207418
Cl      -0.41592465       3.06886607      -2.81290001
C        2.14771568       3.53309138      -3.44889305
N        3.14119160       5.10584135      -5.89207771
C        3.12147152       5.81419464      -7.04252210
N        1.90586090       6.04911813      -7.73630327
C        0.58906509       5.83737156      -7.28737330
C        0.21295385       6.05590189      -5.95808760
C       -1.10802339       5.87048652      -5.53990303
C       -2.08195839       5.46965518      -6.45466473
C       -1.72880927       5.26225112      -7.79043972
Cl      -2.87088323       4.77391190      -8.99356315
C       -0.40284095       5.45418958      -8.20081669
H        6.38988013       6.50046428      -7.23394948
H        5.42194843       4.00744590      -3.92167234
H        5.10415348       2.21779026      -2.42957352
H        3.59974806       0.85777674      -1.06020612
H        1.72047344       4.27569046      -4.11289549
H        2.03377940       5.88480762      -8.72994574
H        0.94795116       6.39132170      -5.22952220
H       -1.36243790       6.04639423      -4.49799956
H       -0.14534498       5.29181394      -9.24452575
C       -3.42528004       5.29723770      -5.96542126
C       -4.55031192       5.15283806      -5.55567986
Br      -6.36939331       4.91935605      -4.89316266
F       -4.99242558      -5.83827267      -9.21774029
C       -4.80244107      -5.44963425      -7.94939778
C       -5.72016888      -5.73690487      -6.97616594
N       -5.58591578      -5.33689698      -5.69712803
C       -4.48052985      -4.63624802      -5.38774398
N       -4.43637145      -4.18301636      -4.07284762
C       -3.52448464      -3.41848864      -3.33966474
C       -3.94573509      -2.85743365      -2.12392730
C       -3.09521970      -2.05302622      -1.35848485
C       -1.79620138      -1.79620138      -1.79620138
C       -1.35724721      -2.34254221      -3.00459787
Cl       0.23872779      -2.08570363      -3.61886559
C       -2.22340598      -3.13826837      -3.76802575
N       -3.51906822      -4.34131371      -6.27872873
C       -3.68440875      -4.73228979      -7.56148972
N       -2.71145574      -4.43023087      -8.54959568
C       -1.40424462      -3.94196638      -8.36759895
C       -0.60904648      -4.33256712      -7.28532974
C        0.69880639      -3.86052162      -7.14065094
C        1.23802432      -2.99125237      -8.08913348
C        0.46469217      -2.60264250      -9.18593123
Cl       1.05389822      -1.53685703     -10.41363301
C       -0.84398238      -3.08399123      -9.32419171
H       -6.61703996      -6.30171059      -7.20554334
H       -5.29336312      -4.44937228      -3.60833126
H       -4.95731806      -3.03216988      -1.76202931
H       -3.46062880      -1.63113626      -0.42596587
H       -1.85783853      -3.54916433      -4.70205653
H       -3.16401213      -4.09159521      -9.39292541
H       -0.99711934      -5.02774141      -6.54393431
H        1.28568804      -4.18302662      -6.28461732
H       -1.43120320      -2.77454586     -10.18524565
C        2.59075888      -2.54063844      -7.88749936
C        3.72367407      -2.16324927      -7.71863079
Br       5.55550211      -1.55304291      -7.44558459
F       -4.57828530       6.44028704       9.02986619
C       -4.49651362       5.89767953       7.80727994
C       -5.56273263       5.92031158       6.95019548
N       -5.53533292       5.35789146       5.72671640
C       -4.38782253       4.76599754       5.35070177
N       -4.44558666       4.13464984       4.11199893
C       -3.53250676       3.39346551       3.35666575
C       -4.01845106       2.61160078       2.29704420
C       -3.16385074       1.81876245       1.52411758
C       -1.79620138       1.79620138       1.79620138
C       -1.29167151       2.56481106       2.84790473
Cl       0.38977441       2.60586364       3.24975220
C       -2.16060487       3.34684686       3.62224837
N       -3.28804858       4.72938353       6.12167855
C       -3.34415056       5.27953054       7.35450716
N       -2.21969795       5.25159663       8.21998771
C       -0.88904434       4.91238153       7.91238409
C       -0.30384535       5.23848257       6.68461541
C        1.02981582       4.92071910       6.41146289
C        1.80669234       4.27533195       7.37372191
C        1.24450252       3.95609266       8.61229143
Cl       2.13470800       3.16512624       9.86617358
C       -0.09214261       4.28193933       8.87808338
H       -6.49599973       6.39378077       7.23451339
H       -5.38440516       4.21890943       3.74775207
H       -5.08246168       2.60131151       2.06774406
H       -3.57931756       1.22195823       0.71645514
H       -1.74318207       3.93310705       4.43277027
H       -2.50677641       4.98513997       9.15661638
H       -0.88061796       5.76261175       5.92556535
H        1.44941230       5.18659213       5.44477606
H       -0.51334309       4.02956922       9.84808240
C        3.17399811       3.97597525       7.03540178
C        4.31911669       3.72526401       6.75205868
Br       6.17067658       3.31988514       6.29391683
F        4.10499059      -7.85180114       8.09164680
C        4.15039879      -6.94577490       7.10529941
C        5.33495999      -6.38325275       6.71502696
N        5.42221740      -5.44516364       5.75255973
C        4.27659427      -5.07384652       5.15408106
N        4.41930182      -4.04657404       4.22635957
C        3.52760784      -3.34447196       3.41055823
C        3.95402932      -2.13669379       2.83637293
C        3.10068876      -1.36690282       2.03913918
C        1.79620138      -1.79620138       1.79620138
C        1.35037309      -2.99401723       2.35999697
Cl      -0.24594207      -3.60776138       2.10402212
C        2.21231065      -3.75094782       3.16644163
N        3.07903655      -5.60143238       5.45864174
C        3.01069306      -6.52450713       6.44298807
N        1.76984328      -7.10026663       6.82117238
C        0.53343819      -7.02725447       6.15311729
C        0.44170475      -7.02775749       4.75748110
C       -0.79852337      -6.98716667       4.11372287
C       -1.97501127      -6.95476383       4.86260896
C       -1.90421500      -6.97021896       6.25787761
Cl      -3.30972936      -6.94145974       7.26486144
C       -0.65650712      -7.01463960       6.89403284
H        6.26936430      -6.67040127       7.18452832
H        5.38515370      -3.74961525       4.21629772
H        4.96339977      -1.77139027       3.01672722
H        3.46582499      -0.43396385       1.61794209
H        1.84088678      -4.67596441       3.59220820
H        1.69055472      -7.12498108       7.83299695
H        1.34283739      -7.07606322       4.14989444
H       -0.83055427      -6.98515882       3.02735133
H       -0.61902441      -7.02953714       7.98048198
C       -3.22202946      -6.91584825       4.14356014
C       -4.26640719      -6.88325645       3.54135675
Br      -5.95507766      -6.83055826       2.56764479
C       -0.00445707       0.01189536      -1.78238275
H       -0.66409135       0.67374010      -2.43557963
H        0.65740317      -0.63156657      -2.45157240
C       -0.90989263      -0.90692880      -0.91072765
C        0.90977584       0.90977584      -0.90977584
C       -0.00465871       1.77757030       0.00794375
H       -0.66225468       2.44313916      -0.64384735
H        0.64322798       2.43503045       0.67728295
C       -1.78241447       0.00034974      -0.00472694
H       -2.45427497      -0.65498947       0.64260836
H       -2.43311707       0.67328779      -0.65473579
C       -0.91132561       0.90220522       0.91563759
C       -0.01476271      -0.02253852       1.78660255
H       -0.67934791      -0.69751639       2.42135241
H        0.63392994       0.61504881       2.47327442
C        0.01484550      -1.77751727      -0.01636693
H        0.67870853      -2.42144646      -0.68295456
H       -0.62264859      -2.45592969       0.64226336
C        1.78714474       0.01002794       0.00389507
H        2.44202412       0.67113390       0.66197326
H        2.45385902      -0.65136977      -0.64189061
C        0.91606151      -0.90478549       0.90901405
