141
Properties=species:S:1:pos:R:3 pbc="F F F"
C        0.00000000       0.00000000       0.00000000
C        0.87885943       0.87885943      -0.87885943
C        0.35168441       1.52351294      -1.98698834
N        1.07721197       2.32622961      -2.79977400
C        2.38572300       2.48897558      -2.47903596
C        3.01053404       1.88625339      -1.38924316
C        2.22702228       1.05625391      -0.57993831
C        4.41757528       2.09949179      -1.09701296
N        5.24601450       1.35459117      -0.38602953
C        6.43245505       2.04471813      -0.43999868
C        7.69653890       1.75710334       0.09499864
C        8.74728662       2.67093387      -0.11764357
C        8.51261354       3.84949561      -0.84373783
C        7.25539151       4.14912933      -1.39123942
C        6.26236699       3.20992055      -1.16508307
O        4.97204858       3.24932955      -1.59997945
N       10.00323147       2.32679524       0.42275270
C       11.19135401       3.03503668       0.35731295
O       11.34143183       4.12535272      -0.18416382
C       12.29264701       2.34961721       1.01018763
C       13.61765566       2.70961350       1.16979096
C       14.24253011       1.65917763       1.88422098
C       13.26394791       0.72068199       2.11809929
O       12.07677538       1.12763639       1.59403753
H       -0.69314619       1.41658482      -2.26482005
H        2.93425655       3.13740940      -3.15906319
H        2.66996529       0.56337150       0.28277644
H        7.83605596       0.83878923       0.65373377
H        9.30355332       4.57526871      -1.01436623
H        7.07364337       5.05474297      -1.95659872
H       10.06651843       1.44236523       0.91763322
H       14.06636752       3.62541078       0.80695995
H       15.27820313       1.59749614       2.18820953
C       13.45809386      -0.52255593       2.81828985
C       13.62069110      -1.56376769       3.40469943
Br      13.88359709      -3.24731905       4.35287414
C       -0.87885943      -0.87885943      -0.87885943
C       -0.41705357      -1.34540898      -2.09972314
N       -1.14459239      -2.13845468      -2.92016851
C       -2.38578811      -2.47839692      -2.48954952
C       -2.94194725      -2.06240258      -1.28168075
C       -2.16022520      -1.23553228      -0.46745702
C       -4.27865869      -2.46043907      -0.87498227
N       -5.09292355      -1.88857287      -0.00513878
C       -6.20234749      -2.69843772      -0.01638665
C       -7.42095640      -2.60976382       0.67207661
C       -8.39150105      -3.60957589       0.46521288
C       -8.12223227      -4.67521696      -0.40839776
C       -6.91059854      -4.77528254      -1.10987918
C       -5.99815807      -3.75821708      -0.88099547
O       -4.76738821      -3.60866169      -1.44530768
N       -9.60715175      -3.46465503       1.16453277
C      -10.71770034      -4.29146064       1.14008325
O      -10.81696949      -5.33160968       0.49763081
C      -11.80222690      -3.80314366       1.97329397
C      -13.05793528      -4.32370243       2.22415951
C      -13.70134954      -3.42730954       3.11117232
C      -12.80224851      -2.41334656       3.34906446
O      -11.64642533      -2.62972352       2.66577461
H        0.57390888      -1.09454032      -2.46762723
H       -2.93900641      -3.11244468      -3.17927805
H       -2.55099791      -0.88485391       0.48529147
H       -7.58871279      -1.77386778       1.34146915
H       -8.85016771      -5.46421471      -0.57880584
H       -6.70311577      -5.59321977      -1.78864951
H       -9.70329750      -2.64727501       1.75932207
H      -13.44996903      -5.24281265       1.80796333
H      -14.69730852      -3.51310283       3.52292161
C      -13.04087279      -1.27661411       4.20023881
C      -13.24072063      -0.32460067       4.91309733
Br     -13.56385768       1.21472453       6.06572926
C       -0.87885943       0.87885943       0.87885943
C       -1.73481226       0.31520029       1.81217314
N       -2.53169857       1.04173456       2.62978245
C       -2.45858228       2.39097087       2.50418139
C       -1.63300751       3.05426088       1.59876220
C       -0.83234744       2.26568321       0.76518385
C       -1.59884056       4.50402050       1.51121897
N       -1.20361409       5.27208304       0.51093807
C       -1.37968852       6.54728275       0.99020059
C       -1.16587290       7.79862403       0.39414668
C       -1.43048477       8.96146944       1.14390985
C       -1.88763200       8.85135980       2.46685519
C       -2.11289614       7.60697882       3.07588529
C       -1.85109760       6.49698890       2.28928412
O       -2.00437520       5.18700930       2.62997308
N       -1.21923872      10.19446833       0.49356697
C       -1.40370464      11.47302885       0.99234425
O       -1.77486775      11.74727960       2.12880102
C       -1.10961685      12.50675235       0.01570739
C       -1.16248026      13.88479227       0.11020567
C       -0.77384106      14.39539723      -1.15175153
C       -0.50737958      13.30077789      -1.94162685
O       -0.70624404      12.14953532      -1.24540512
H       -1.81032830      -0.76113213       1.93906250
H       -3.11738652       2.93771381       3.17562881
H       -0.17101075       2.73771247       0.04183713
H       -0.80772246       7.84142012      -0.62803115
H       -2.09069679       9.73255329       3.06993818
H       -2.47104991       7.51975814       4.09417701
H       -0.90171882      10.15986944      -0.47033782
H       -1.45045400      14.44190762       0.99245673
H       -0.69933371      15.43328484      -1.44512881
C       -0.07785014      13.35442442      -3.31502647
C        0.28188077      13.39935340      -4.46524865
Br       0.86353522      13.47199975      -6.32506063
C        0.87885943      -0.87885943       0.87885943
C        1.57901025      -0.33748018       1.94569526
N        2.36657773      -1.06688510       2.76975276
C        2.44719682      -2.39641603       2.51012169
C        1.78490247      -3.03647424       1.46465388
C        0.98862022      -2.24433274       0.63026154
C        1.91099554      -4.46581983       1.23726466
N        1.69468091      -5.15897045       0.13298384
C        1.95703625      -6.45489673       0.50523887
C        1.93262780      -7.65161441      -0.22559860
C        2.24529468      -8.85622657       0.43434281
C        2.56120542      -8.84234416       1.80229740
C        2.59644844      -7.65279143       2.54652038
C        2.29558004      -6.49638729       1.84540329
O        2.27807980      -5.22063448       2.32264330
N        2.22664734     -10.02886376      -0.34823709
C        2.49581573     -11.32936458       0.04389743
O        2.78444555     -11.68462946       1.18187336
C        2.40517891     -12.27842631      -1.05152862
C        2.59270990     -13.64757648      -1.08280818
C        2.38074263     -14.05784961      -2.42110548
C        2.07717530     -12.91676109      -3.12740578
O        2.08777592     -11.83103308      -2.30843476
H        1.52918930       0.72196668       2.18103605
H        3.09308401      -2.94560138       3.19204374
H        0.45169357      -2.69854862      -0.19968185
H        1.67923118      -7.62094958      -1.27906933
H        2.79735706      -9.75859979       2.33723141
H        2.84556941      -7.63906889       3.60034675
H        1.99986745      -9.92382888      -1.33244589
H        2.85261574     -14.26416005      -0.23195744
H        2.44329081     -15.06172675      -2.81752783
C        1.78747356     -12.86685484      -4.53708030
C        1.54484835     -12.82505835      -5.71768272
Br       1.15254391     -12.75747696      -7.62661697
