162
Properties=species:S:1:pos:R:3 pbc="F F F"
C        1.78876345       1.78876345      -1.78876345
C        1.26158843       2.43341696      -2.89689237
N        1.98711600       3.23613364      -3.70967803
C        3.29562702       3.39887961      -3.38893999
C        3.92043806       2.79615741      -2.29914718
C        3.13692631       1.96615793      -1.48984233
C        5.32747930       3.00939581      -2.00691698
N        6.15591852       2.26449519      -1.29593355
C        7.34235907       2.95462215      -1.34990270
C        8.60644293       2.66700737      -0.81490538
C        9.65719064       3.58083790      -1.02754759
C        9.42251757       4.75939963      -1.75364185
C        8.16529553       5.05903335      -2.30114344
C        7.17227102       4.11982458      -2.07498710
O        5.88195260       4.15923357      -2.50988348
N       10.91313550       3.23669926      -0.48715133
C       12.10125804       3.94494070      -0.55259107
O       12.25133585       5.03525674      -1.09406785
C       13.20255103       3.25952124       0.10028360
C       14.52755969       3.61951753       0.25988694
C       15.15243413       2.56908166       0.97431696
C       14.17385193       1.63058602       1.20819527
O       12.98667940       2.03754042       0.68413351
H        0.21675783       2.32648884      -3.17472407
H        3.84416057       4.04731342      -4.06896722
H        3.57986931       1.47327552      -0.62712759
H        8.74595999       1.74869325      -0.25617026
H       10.21345735       5.48517273      -1.92427025
H        7.98354740       5.96464699      -2.86650275
H       10.97642246       2.35226925       0.00772919
H       14.97627154       4.53531480      -0.10294408
H       16.18810716       2.50740016       1.27830551
C       14.36799789       0.38734809       1.90838582
C       14.53059513      -0.65386367       2.49479541
Br      14.79350111      -2.33741502       3.44297012
C       -1.78876345      -1.78876345      -1.78876345
C       -2.13801858      -3.06820814      -1.38567104
N       -2.92451902      -3.89291216      -2.11549647
C       -3.38089679      -3.40560767      -3.29694215
C       -3.08786289      -2.13640374      -3.79147603
C       -2.26338997      -1.31909221      -3.01044439
C       -3.60731556      -1.67067663      -5.06579991
N       -3.15505671      -0.70935520      -5.85193536
C       -4.03998933      -0.70438860      -6.90250599
C       -4.08548762       0.06880560      -8.07167366
C       -5.13635212      -0.14385943      -8.98536458
C       -6.11891566      -1.10788690      -8.70875649
C       -6.08438257      -1.89438745      -7.54670230
C       -5.02200077      -1.65467384      -6.69040808
O       -4.74687515      -2.28800992      -5.51618458
N       -5.12639095       0.64398344     -10.15457858
C       -6.02737816       0.63467003     -11.20608168
O       -7.02655875      -0.07278084     -11.28132085
C       -5.67523412       1.57164799     -12.25820254
C       -6.30034709       1.86805992     -13.45490311
C       -5.51400345       2.85834068     -14.09153607
C       -4.45627181       3.10769033     -13.24766121
O       -4.54271796       2.33467437     -12.13204272
H       -1.79247350      -3.48272916      -0.44276809
H       -4.00540208      -4.10048509      -3.85455404
H       -2.00636591      -0.31955493      -3.35435159
H       -3.31057026       0.80628519      -8.24653843
H       -6.94499218      -1.28538347      -9.39252468
H       -6.83794400      -2.64257169      -7.33418145
H       -4.35975162       1.30108962     -10.26230052
H       -7.21528553       1.41409560     -13.81334049
H       -5.69857079       3.32869483     -15.04732586
C       -3.39925438       4.05244575     -13.50015153
C       -2.51400229       4.84367842     -13.71161218
Br      -1.08262453       6.12303471     -14.05352615
C       -1.78876345       1.78876345       1.78876345
C       -1.23625744       2.81073893       2.54490139
N       -1.96447424       3.63267096       3.33578246
C       -3.30420998       3.41813158       3.36110506
C       -3.95588910       2.41972000       2.64013356
C       -3.16505847       1.58552289       1.84234521
C       -5.39582923       2.23938249       2.70858039
N       -6.11851773       1.16872941       2.42910013
C       -7.40937089       1.57781717       2.65969586
C       -8.62897235       0.89153039       2.56785295
C       -9.82048968       1.58294533       2.86214112
C       -9.77068672       2.93780293       3.22706941
C       -8.55816666       3.63734081       3.32996485
C       -7.41664160       2.90611798       3.04432311
O       -6.12536079       3.33774115       3.08796770
N      -11.01803322       0.84391987       2.77503300
C      -12.31301247       1.27279090       3.01298644
O      -12.63886598       2.41209988       3.32969458
C      -13.29548509       0.21579521       2.85050837
C      -14.67072983       0.22705026       2.98941019
C      -15.11912705      -1.08759796       2.71566975
C      -13.99298111      -1.82335658       2.42661816
O      -12.88069482      -1.04459858       2.50399006
H       -0.16821214       3.00961490       2.54014371
H       -3.85227059       4.09655025       4.01162038
H       -3.62816690       0.79139293       1.26071259
H       -8.62565963      -0.15298430       2.27814816
H      -10.67578398       3.49669333       3.45042302
H       -8.51698169       4.68077070       3.61694474
H      -10.93900274      -0.13499771       2.51695748
H      -15.26646626       1.08992781       3.25813635
H      -16.13768893      -1.44978339       2.72929628
C      -13.98145236      -3.22306913       2.08857693
C      -13.97179704      -4.39532839       1.80546740
Br     -13.95618519      -6.29077246       1.34770324
C        1.78876345      -1.78876345       1.78876345
C        2.22682808      -3.02498037       1.34008932
N        3.01829694      -3.84651648       2.06811424
C        3.38653431      -3.40100345       3.29590886
C        3.00040186      -2.17705771       3.83828309
C        2.17408954      -1.36207320       3.05676383
C        3.42794488      -1.75484740       5.16099983
N        2.88471872      -0.86184299       5.96978556
C        3.71308630      -0.86829559       7.06550204
C        3.65676910      -0.15808010       8.27350647
C        4.66938015      -0.36566155       9.23053443
C        5.71547254      -1.26171431       8.95837221
C        5.78307881      -1.98502157       7.75737196
C        4.75457966      -1.75415771       6.85834532
O        4.57461039      -2.33639822       5.64006104
N        4.55696371       0.35631724      10.43633962
C        5.40206499       0.33639667      11.53312149
O        6.43283533      -0.32194864      11.62587647
C        4.94635956       1.19588616      12.61131527
C        5.49239475       1.45885983      13.85365536
C        4.62210856       2.37169874      14.49678902
C        3.59708961       2.61173924      13.61089232
O        3.78223099       1.90557044      12.46342575
H        1.95295871      -3.40511918       0.35989285
H        4.01826959      -4.09207161       3.85010002
H        1.84615492      -0.39706244       3.43705506
H        2.83519970       0.52819189       8.44381569
H        6.51380286      -1.43332344       9.67577403
H        6.58585968      -2.68102858       7.54780887
H        3.75143244       0.96649057      10.53602064
H        6.41094895       1.03368040      14.23726187
H        4.73177032       2.79856965      15.48400114
C        2.47902721       3.48606079      13.85399374
C        1.54264995       4.21830509      14.05759118
Br       0.02860712       5.40228218      14.38679103
C       -0.00445707       0.01189536      -1.78238275
H       -0.66409135       0.67374010      -2.43557963
H        0.65740317      -0.63156657      -2.45157240
C       -0.90989263      -0.90692880      -0.91072765
C        0.90977584       0.90977584      -0.90977584
C       -0.00465871       1.77757030       0.00794375
H       -0.66225468       2.44313916      -0.64384735
H        0.64322798       2.43503045       0.67728295
C       -1.78241447       0.00034974      -0.00472694
H       -2.45427497      -0.65498947       0.64260836
H       -2.43311707       0.67328779      -0.65473579
C       -0.91132561       0.90220522       0.91563759
C       -0.01476271      -0.02253852       1.78660255
H       -0.67934791      -0.69751639       2.42135241
H        0.63392994       0.61504881       2.47327442
C        0.01484550      -1.77751727      -0.01636693
H        0.67870853      -2.42144646      -0.68295456
H       -0.62264859      -2.45592969       0.64226336
C        1.78714474       0.01002794       0.00389507
H        2.44202412       0.67113390       0.66197326
H        2.45385902      -0.65136977      -0.64189061
C        0.91606151      -0.90478549       0.90901405
