145
Properties=species:S:1:pos:R:3 pbc="F F F"
C        0.00000000       0.00000000       0.00000000
C        0.88173841       0.88173841      -0.88173841
C        2.26804920       0.78496279      -0.78995557
C        3.07420059       1.58725700      -1.60117639
C        2.50049979       2.48631856      -2.51288045
C        1.10193072       2.58557357      -2.57603853
C        0.29440402       1.77946972      -1.76993587
C        3.39114368       3.35854564      -3.36819603
O        2.80924101       3.62829105      -4.65173497
C        2.96101149       2.65205690      -5.57770092
O        3.56978550       1.60028468      -5.43092717
C        2.19133381       2.98423733      -6.80531322
C        1.93702934       4.32896842      -7.12342844
C        1.19594190       4.64635924      -8.25775828
C        0.71098448       3.64020945      -9.08465631
C        0.95933680       2.30023517      -8.77219095
C        1.69291818       1.94844525      -7.63194187
N        1.95296321       0.59463715      -7.30216140
C        1.32023960      -0.52471738      -7.80511704
O        0.35195566      -0.53479960      -8.55848634
C        1.90610129      -1.81591345      -7.29246417
H        2.73046675       0.08988305      -0.09409589
H        4.15598861       1.49965908      -1.52098595
H        0.62928031       3.28795455      -3.25987895
H       -0.78701830       1.86059795      -1.84256218
H        4.39055196       2.92136867      -3.49090305
H        3.52231067       4.32194652      -2.86288470
H        2.31385091       5.12761439      -6.48907528
H        0.13820180       3.87882590      -9.97828399
H        0.57854856       1.54606913      -9.45607142
H        2.61757286       0.44694088      -6.53949431
H        1.26940138      -2.20861261      -6.49549042
H        2.92046770      -1.67650880      -6.90884820
H        1.95125648      -2.53515945      -8.11545307
C        0.92869328       6.02498243      -8.57646860
C        0.70487256       7.17957935      -8.84338849
Br       0.34297338       9.04646493      -9.27497537
C       -0.88173841      -0.88173841      -0.88173841
C       -0.30106647      -1.66830827      -1.87359282
C       -1.10738918      -2.47945259      -2.67579221
C       -2.49741811      -2.51425656      -2.48802412
C       -3.06695836      -1.69855887      -1.49802559
C       -2.26132230      -0.89161195      -0.69087535
C       -3.35356859      -3.38497512      -3.37934164
O       -4.50420696      -3.89485089      -2.69020918
C       -4.28594640      -4.98605355      -1.91876936
O       -3.22585022      -5.58451087      -1.79063626
C       -5.51095226      -5.32294340      -1.14698871
C       -6.77167906      -4.96452405      -1.65322308
C       -7.92109776      -5.25465168      -0.92430997
C       -7.83110499      -5.90517894       0.30043368
C       -6.57918016      -6.26265972       0.81007696
C       -5.40342658      -5.97502083       0.10514211
N       -4.12722336      -6.33124933       0.60871093
C       -3.81037491      -6.69315147       1.90288712
O       -4.56767698      -6.67596335       2.86799793
C       -2.36477448      -7.08764446       2.06976693
H        0.77445138      -1.65921096      -2.02968612
H       -0.64030670      -3.09090757      -3.44541938
H       -4.14407371      -1.69035410      -1.34268600
H       -2.71904207      -0.27693705       0.07983729
H       -2.77688753      -4.21148208      -3.81445407
H       -3.71902044      -2.77504430      -4.21307715
H       -6.85883230      -4.45952178      -2.61218650
H       -8.72459428      -6.14404543       0.87332803
H       -6.55540437      -6.78711690       1.76183216
H       -3.34810607      -6.21327598      -0.04262600
H       -1.81238359      -6.25302266       2.50912706
H       -1.90672904      -7.36153143       1.11545337
H       -2.30935429      -7.95554512       2.73334931
C       -9.21134204      -4.87786627      -1.44093600
C      -10.29192163      -4.56230848      -1.87361029
Br     -12.03912742      -4.05207823      -2.57320803
C       -0.88173841       0.88173841       0.88173841
C       -1.92370005       1.60841253       0.31085498
C       -2.73391462       2.40997589       1.11874347
C       -2.51195727       2.48564805       2.50209348
C       -1.44388319       1.76327805       3.05638158
C       -0.63669019       0.95638226       2.25073716
C       -3.38888251       3.37357043       3.35543241
O       -3.57029945       2.84283382       4.67613376
C       -4.51626923       1.88112865       4.79337143
O       -5.23984230       1.46149787       3.89965718
C       -4.50262855       1.31177488       6.16648093
C       -4.05147081       2.09777546       7.24017992
C       -4.01260051       1.56305951       8.52439940
C       -4.42540078       0.25614646       8.75430300
C       -4.87360970      -0.53134263       7.68949586
C       -4.91452313      -0.02524264       6.38402482
N       -5.36651340      -0.81124298       5.29449133
C       -5.52240096      -2.18267646       5.26091475
O       -5.20310801      -2.97184379       6.14437819
C       -6.10203711      -2.68053230       3.96114720
H       -2.11476342       1.55751369      -0.75783142
H       -3.54612060       2.97053423       0.65997881
H       -1.23594272       1.81794982       4.12322127
H        0.17735881       0.39350952       2.69999111
H       -4.36351817       3.55515758       2.88414792
H       -2.89777749       4.34728949       3.46207491
H       -3.72982879       3.12354660       7.07716520
H       -4.40692229      -0.16770875       9.75609816
H       -5.20543223      -1.54121180       7.91646868
H       -5.49888158      -0.30886635       4.41399281
H       -5.29754449      -3.07869249       3.33742720
H       -6.62065001      -1.88582997       3.41798706
H       -6.82624258      -3.47152568       4.17683320
C       -3.54093744       2.36762676       9.62158010
C       -3.14591962       3.04145184      10.54046893
Br      -2.50720922       4.13096999      12.02623447
C        0.88173841      -0.88173841       0.88173841
C        2.03423630      -0.35192927       1.45680198
C        2.83716348      -1.15710983       2.26836067
C        2.49048226      -2.49411356       2.51510298
C        1.33716393      -3.01672564       1.90965324
C        0.52985979      -2.21103993       1.10290989
C        3.38320435      -3.35332246       3.38135854
O        2.63717989      -4.32939478       4.12269236
C        2.05394209      -3.87839242       5.25843479
O        2.13695272      -2.74665084       5.71739379
C        1.19408051      -4.93705372       5.84975013
C        1.49159717      -6.28895350       5.60887553
C        0.67656712      -7.28475887       6.13873343
C       -0.42803644      -6.95080861       6.91307807
C       -0.73008965      -5.60721070       7.15464187
C        0.06486240      -4.58193375       6.62650916
N       -0.22847545      -3.21544292       6.86279429
C       -1.41357983      -2.68356558       7.33065350
O       -2.45581777      -3.29838906       7.53307112
C       -1.35028705      -1.19192940       7.54100966
H        2.31554361       0.68322328       1.28212536
H        3.73357573      -0.72963549       2.71342242
H        1.05404125      -4.05562829       2.06744427
H       -0.36693642      -2.62954575       0.65353249
H        3.99322605      -2.74655065       4.06304698
H        4.07581544      -3.89982340       2.73150305
H        2.35508442      -6.56632234       5.00913383
H       -1.06594507      -7.72242902       7.33882775
H       -1.59143508      -5.39081285       7.78131133
H        0.48936634      -2.55250122       6.56214049
H       -1.83010733      -0.68885477       6.69753175
H       -0.31949155      -0.83909179       7.63320686
H       -1.87752763      -0.94258911       8.46648862
C        0.97824979      -8.66930801       5.88258650
C        1.23090902      -9.82886792       5.66806346
Br       1.63943763     -11.70377821       5.32119783
