86
Properties=species:S:1:pos:R:3 pbc="F F F"
C        1.81896299       1.81896299      -1.81896299
C        1.40129901       1.61053208      -3.25159883
O        0.59033191       2.36682017      -3.78845126
C        1.98699111       0.48745167      -4.05019573
C        1.64998827       0.40191487      -5.41083012
C        2.16836245      -0.61908078      -6.21198592
C        3.02676925      -1.56234051      -5.65486233
Br       3.73260383      -2.94433861      -6.73297959
C        3.36728664      -1.49456359      -4.30510188
C        2.84805488      -0.47223542      -3.50198164
H        2.86888780       1.58372119      -1.64030873
H        1.64253456       2.85825533      -1.52845551
H        0.97715073       1.13331371      -5.85767578
H        1.89402405      -0.66677903      -7.26305725
H        4.03296604      -2.23479528      -3.86667497
H        3.12880907      -0.46412321      -2.45334040
C       -1.81896299      -1.81896299      -1.81896299
C       -3.22945410      -1.73887640      -1.29509941
O       -4.03495262      -0.93817065      -1.77248006
C       -3.67671841      -2.65201656      -0.19590355
C       -5.02901044      -2.61482957       0.18110676
C       -5.51050398      -3.44650258       1.19573897
C       -4.63990392      -4.32006037       1.84067322
Br      -5.28485703      -5.44855452       3.21216674
C       -3.29394817      -4.36578643       1.48190966
C       -2.81096945      -3.53266829       0.46583665
H       -1.42429984      -2.83564529      -1.83297259
H       -1.77711543      -1.41709543      -2.83503454
H       -5.71961297      -1.93348519      -0.31504205
H       -6.56116308      -3.40119350       1.47205430
H       -2.61088634      -5.04338688       1.98942748
H       -1.75361970      -3.59125250       0.22684595
C       -1.81896299       1.81896299       1.81896299
C       -2.94250359       2.35246902       0.96845731
O       -4.03288925       1.78008329       0.93263080
C       -2.75182532       3.60399590       0.16881730
C       -3.86161193       4.12058171      -0.51946039
C       -3.75070497       5.28885647      -1.27829386
C       -2.52656023       5.94668137      -1.35395053
Br      -2.37023524       7.52777752      -2.37676795
C       -1.41425132       5.44449136      -0.68091774
C       -1.52465300       4.27404662       0.07910148
H       -1.21468848       2.60535901       2.27287023
H       -2.22370981       1.18940124       2.61613435
H       -4.82457886       3.61310853      -0.46954718
H       -4.62261227       5.67121472      -1.80352471
H       -0.45520984       5.95391718      -0.74428128
H       -0.63077159       3.91068097       0.57657370
C        1.81896299      -1.81896299       1.81896299
C        1.30224259      -1.72965365       3.23153368
O        0.51084035      -2.56710894       3.66765405
C        1.76420043      -0.62714464       4.13329345
C        1.34017099      -0.65066536       5.47189690
C        1.74153974       0.34590003       6.36562788
C        2.56930667       1.37378788       5.92377228
Br       3.11713272       2.72338086       7.12749295
C        2.99502354       1.41450711       4.59730851
C        2.59300655       0.41668963       3.70148417
H        2.86035236      -1.50916656       1.72339879
H        1.72829034      -2.84604379       1.45491127
H        0.69021596      -1.44908767       5.82883658
H        1.40122139       0.30857302       7.39765391
H        3.63676376       2.22074583       4.24882781
H        2.93700111       0.49367883       2.67470398
C       -0.00445707       0.01189536      -1.78238275
H       -0.66409135       0.67374010      -2.43557963
H        0.65740317      -0.63156657      -2.45157240
C       -0.90989263      -0.90692880      -0.91072765
C        0.90977584       0.90977584      -0.90977584
C       -0.00465871       1.77757030       0.00794375
H       -0.66225468       2.44313916      -0.64384735
H        0.64322798       2.43503045       0.67728295
C       -1.78241447       0.00034974      -0.00472694
H       -2.45427497      -0.65498947       0.64260836
H       -2.43311707       0.67328779      -0.65473579
C       -0.91132561       0.90220522       0.91563759
C       -0.01476271      -0.02253852       1.78660255
H       -0.67934791      -0.69751639       2.42135241
H        0.63392994       0.61504881       2.47327442
C        0.01484550      -1.77751727      -0.01636693
H        0.67870853      -2.42144646      -0.68295456
H       -0.62264859      -2.45592969       0.64226336
C        1.78714474       0.01002794       0.00389507
H        2.44202412       0.67113390       0.66197326
H        2.45385902      -0.65136977      -0.64189061
C        0.91606151      -0.90478549       0.90901405
