174
Properties=species:S:1:pos:R:3 pbc="F F F"
C        1.79158584       1.79158584      -1.79158584
C        2.75835989       2.61036237      -1.20646737
C        3.55882045       3.42425407      -2.01225204
C        3.37372928       3.42402045      -3.39618139
C        2.41243699       2.59594648      -3.97807982
C        1.61955302       1.77524181      -3.17481717
N        4.14588081       4.28262678      -4.22940490
C        5.55420214       3.94721111      -4.50367532
C        6.56044490       4.95378919      -3.96783580
O        6.98501644       4.87373036      -2.81774194
N        6.85875151       5.95842033      -4.87345739
C        7.74857593       7.03382538      -4.69522651
C        8.73065830       7.06999124      -3.70655360
C        9.56345742       8.18746486      -3.58104749
C        9.41935623       9.27763728      -4.44351167
C        8.44903314       9.23927837      -5.44780818
Cl       8.19769889      10.54134034      -6.55599713
C        7.62563320       8.11517975      -5.57646160
S        3.49236132       5.76072104      -4.69262769
O        4.37071005       6.31926586      -5.70415033
O        2.07860165       5.59658823      -4.96381307
C        3.64986760       6.74323257      -3.20979870
H        2.89143353       2.62475384      -0.12758912
H        4.31151134       4.05861476      -1.55075940
H        2.26440665       2.60064612      -5.05520741
H        0.86714600       1.14077068      -3.63594086
H        5.68429861       3.83344914      -5.58710833
H        5.81383746       2.96970340      -4.07762934
H        6.19631783       6.05840973      -5.64843749
H        8.87985833       6.23841754      -3.02298303
H       10.32094659       8.19522129      -2.80029534
H        6.86807158       8.10035004      -6.35800328
H        2.97529852       6.34689682      -2.44854766
H        3.35573383       7.76612103      -3.45574992
H        4.68212298       6.73306920      -2.86165076
C       10.29216901      10.40561990      -4.24488368
C       11.02314971      11.35030534      -4.07853274
Br      12.20508368      12.87778180      -3.80955734
C       -1.79158584      -1.79158584      -1.79158584
C       -1.90699592      -1.51389725      -3.15429647
C       -2.72111016      -2.31475153      -3.95946487
C       -3.42603502      -3.37729365      -3.39060246
C       -3.29974798      -3.65766938      -2.02904593
C       -2.47888721      -2.86450923      -1.22621556
N       -4.29865418      -4.17423802      -4.18502029
C       -3.72648333      -5.16366961      -5.11493563
C       -4.00915742      -4.88911273      -6.58379975
O       -3.27549196      -4.15726143      -7.24373534
N       -5.17913762      -5.47997059      -7.03152103
C       -5.72174589      -5.42712041      -8.32876151
C       -4.99318024      -5.05616721      -9.45785569
C       -5.61257689      -5.00772132     -10.71167156
C       -6.96601743      -5.32941906     -10.84506869
C       -7.69656886      -5.71952510      -9.72002573
Cl      -9.37348459      -6.13141768      -9.79013409
C       -7.07032869      -5.77698358      -8.46996227
S       -5.93963385      -3.80891085      -4.19716535
O       -6.61489678      -4.89376832      -4.88546113
O       -6.35459544      -3.41973995      -2.86466756
C       -6.01234014      -2.35670337      -5.23385536
H       -1.37261875      -0.67603731      -3.59512043
H       -2.80559502      -2.09454992      -5.02074055
H       -3.85364402      -4.48132942      -1.58528673
H       -2.39405232      -3.08457078      -0.16523444
H       -4.10154771      -6.15864404      -4.84466434
H       -2.63681555      -5.22486069      -4.99949396
H       -5.82461237      -5.78266136      -6.29589132
H       -3.93694870      -4.80788129      -9.39642891
H       -5.02536891      -4.71254301     -11.57855130
H       -7.65205465      -6.07490483      -7.59946542
H       -5.52815563      -1.52670394      -4.71588343
H       -7.06550682      -2.11614069      -5.39595727
H       -5.53091121      -2.55515099      -6.19078074
C       -7.54781877      -5.23587610     -12.15897771
C       -8.03507739      -5.15753388     -13.25937652
Br      -8.82293337      -5.03086112     -15.03862832
C       -1.79158584       1.79158584       1.79158584
C       -2.19899667       1.33165450       3.04453846
C       -3.01351626       2.13429271       3.84751758
C       -3.42705315       3.38424736       3.38263062
C       -3.00888384       3.84459327       2.13298618
C       -2.18705450       3.04780868       1.33474883
N       -4.29696038       4.19559285       4.16535926
C       -3.76008385       4.90520425       5.33980047
C       -4.34896175       4.46277221       6.67033594
O       -3.87298746       3.51422314       7.28927813
N       -5.47527086       5.18308441       7.03227396
C       -6.25013883       5.03058112       8.19690786
C       -5.80985643       4.36023762       9.33710910
C       -6.65051239       4.23297312      10.44848426
C       -7.93849831       4.77493201      10.42707486
C       -8.37848010       5.46359815       9.29404144
Cl      -9.95461119       6.16279501       9.17763016
C       -7.53047713       5.59775781       8.18903961
S       -5.94831506       4.14297805       3.85441694
O       -6.56231651       5.21366238       4.61814734
O       -6.16480722       4.04930829       2.42488744
C       -6.43652428       2.58613677       4.58023782
H       -1.89231985       0.35119368       3.40026295
H       -3.32618287       1.77127879       4.82342383
H       -3.33616478       4.81534480       1.76875059
H       -1.87412454       3.41057611       0.35915689
H       -3.91931956       5.98211582       5.20342072
H       -2.67184946       4.78081545       5.40850528
H       -5.91837362       5.71064222       6.27414921
H       -4.81217566       3.93334233       9.39574092
H       -6.28707661       3.70308726      11.32629935
H       -7.88749749       6.12985277       7.30907465
H       -5.99984438       1.77164544       3.99925319
H       -7.52586189       2.52246305       4.52927985
H       -6.11566188       2.54082055       5.62036051
C       -8.76080852       4.58760665      11.59425742
C       -9.44949333       4.43072165      12.57177281
Br     -10.56303841       4.17705189      14.15233252
C        1.79158584      -1.79158584       1.79158584
C        2.52493135      -2.83151928       1.21873901
C        3.32438004      -3.64434820       2.02659832
C        3.37035271      -3.41968799       3.40389043
C        2.64313667      -2.37202537       3.97130124
C        1.85245501      -1.55343102       3.16372598
N        4.14038082      -4.26769403       4.24983765
C        5.60753767      -4.13237111       4.26517979
C        6.36115294      -5.35524016       3.76567680
O        6.59858872      -5.50792320       2.56997682
N        6.65986076      -6.25806861       4.77269986
C        7.34871615      -7.47891724       4.64999442
C        8.14068311      -7.81376462       3.55275541
C        8.77659006      -9.05895638       3.49642334
C        8.62423170      -9.97890419       4.53736930
C        7.84661398      -9.64165000       5.64785571
Cl       7.60007271     -10.71647181       6.97849184
C        7.22132984      -8.39108716       5.70485755
S        3.37078559      -5.53899748       5.03592697
O        4.31580413      -6.08638702       5.99193508
O        2.05772829      -5.10912648       5.47214818
C        3.14389972      -6.73217878       3.72682036
H        2.47614403      -3.01869647       0.14893599
H        3.89479509      -4.45179934       1.57429107
H        2.67435463      -2.20128590       5.04461964
H        1.28227220      -0.74597029       3.61561505
H        5.92798746      -3.89062763       5.28624100
H        5.92839082      -3.28014700       3.65263238
H        6.12592307      -6.13850236       5.63873963
H        8.29104953      -7.12207410       2.72813527
H        9.38728851      -9.30011237       2.62906234
H        6.61168208      -8.14290170       6.57184112
H        2.41610669      -6.34145522       3.01318109
H        2.75349645      -7.64832622       4.17578211
H        4.09627031      -6.94016220       3.24041044
C        9.28576007     -11.25116797       4.40574455
C        9.83979008     -12.31668889       4.29550882
Br      10.73560974     -14.03954610       4.11726697
C       -0.00445707       0.01189536      -1.78238275
H       -0.66409135       0.67374010      -2.43557963
H        0.65740317      -0.63156657      -2.45157240
C       -0.90989263      -0.90692880      -0.91072765
C        0.90977584       0.90977584      -0.90977584
C       -0.00465871       1.77757030       0.00794375
H       -0.66225468       2.44313916      -0.64384735
H        0.64322798       2.43503045       0.67728295
C       -1.78241447       0.00034974      -0.00472694
H       -2.45427497      -0.65498947       0.64260836
H       -2.43311707       0.67328779      -0.65473579
C       -0.91132561       0.90220522       0.91563759
C       -0.01476271      -0.02253852       1.78660255
H       -0.67934791      -0.69751639       2.42135241
H        0.63392994       0.61504881       2.47327442
C        0.01484550      -1.77751727      -0.01636693
H        0.67870853      -2.42144646      -0.68295456
H       -0.62264859      -2.45592969       0.64226336
C        1.78714474       0.01002794       0.00389507
H        2.44202412       0.67113390       0.66197326
H        2.45385902      -0.65136977      -0.64189061
C        0.91606151      -0.90478549       0.90901405
