145
Properties=species:S:1:pos:R:3 pbc="F F F"
C        0.00000000       0.00000000       0.00000000
O        2.89843411       2.34429947      -5.54366398
C        3.42361024       3.18347770      -4.81389688
N        3.25896506       3.27360780      -3.43868418
C        2.46951124       2.43598765      -2.62323925
C        1.87323603       1.25530828      -3.06885288
C        1.08820327       0.48226913      -2.20640533
C        0.88602633       0.88602633      -0.88602633
C        1.48593917       2.06095007      -0.42702663
Cl       1.28503467       2.64171173       1.18839844
C        2.28184828       2.82506384      -1.29202510
C        4.36662901       4.22934919      -5.38395439
N        5.72806696       3.66898318      -5.45391343
C        6.70794647       4.08989021      -4.49700048
C        7.07960935       3.16643689      -3.51364737
C        8.03120567       3.50760841      -2.55081616
C        8.61321632       4.77405365      -2.56364014
C        8.25395155       5.69913341      -3.54519292
C        7.30874090       5.35876915      -4.51747719
Br       6.88750057       6.66694010      -5.82800316
S        6.28272730       3.01320200      -6.91051394
O        5.58374480       3.65367660      -8.00373750
O        7.72909016       2.95407798      -6.88565479
C        5.70604566       1.33292859      -6.79995081
H        3.71182641       4.05378180      -2.97515105
H        2.00260012       0.89318842      -4.08511636
H        0.63677586      -0.43258038      -2.58380269
H        2.73453297       3.73988634      -0.91730270
H        4.33586011       5.12942378      -4.75888907
H        3.98971152       4.54060908      -6.36282864
H        6.64260809       2.17144334      -3.49983907
H        8.32810736       2.78120508      -1.79805406
H        9.35914399       5.03782686      -1.81702418
H        8.72582608       6.67881303      -3.55034012
H        6.06727494       0.89149917      -5.86956178
H        6.11915217       0.78296380      -7.64894844
H        4.62056882       1.30816639      -6.85847706
O       -2.08672416      -5.45262731      -3.24704609
C       -3.04752901      -4.77171779      -3.60173802
N       -3.25552311      -3.43829816      -3.27743577
C       -2.42103338      -2.61780226      -2.48990251
C       -1.14299645      -2.98695345      -2.06744729
C       -0.37754268      -2.12670177      -1.27263328
C       -0.88602633      -0.88602633      -0.88602633
C       -2.16011022      -0.50263773      -1.31116791
Cl      -2.87318079       1.01028120      -0.87544837
C       -2.91769024      -1.36333743      -2.11790955
C       -4.12944056      -5.35735271      -4.49313933
N       -3.71934873      -5.22862727      -5.90298757
C       -4.33963686      -4.23138464      -6.72381567
C       -3.56578478      -3.11955723      -7.07435160
C       -4.10468268      -2.11044017      -7.87450740
C       -5.42023066      -2.20553343      -8.32514602
C       -6.19724546      -3.31452472      -7.98650771
C       -5.65891134      -4.33244189      -7.19363400
Br      -6.77505592      -5.81539202      -6.79199589
S       -2.98716650      -6.54090299      -6.67837374
O       -3.43394899      -7.76262890      -6.04458100
O       -3.09158406      -6.36553906      -8.11169980
C       -1.27275561      -6.30273877      -6.26343069
H       -4.12341605      -3.02131255      -3.59603067
H       -0.69793482      -3.93879269      -2.34417739
H        0.61477144      -2.44343642      -0.95933318
H       -3.90985035      -1.04911947      -2.43275220
H       -5.07836600      -4.84216421      -4.30364274
H       -4.29780961      -6.39738313      -4.19795651
H       -2.53483236      -3.03913482      -6.73992332
H       -3.49439217      -1.25593266      -8.15704167
H       -5.83822702      -1.42213860      -8.95362941
H       -7.21778631      -3.38120714      -8.35598577
H       -0.96909820      -5.29777991      -6.56145777
H       -0.69009597      -7.04005706      -6.82091138
H       -1.12205505      -6.46610409      -5.19905313
O       -3.09336958       5.50008521       2.19294278
C       -3.57408500       4.78025751       3.06664231
N       -3.32133801       3.42474041       3.22517863
C       -2.47959982       2.62098390       2.42815443
C       -1.61610224       3.12633639       1.45495855
C       -0.82139637       2.26605132       0.68943004
C       -0.88602633       0.88602633       0.88602633
C       -1.73973124       0.37029017       1.86389445
Cl      -1.89058156      -1.32377141       2.17153781
C       -2.52445712       1.23778870       2.63669140
C       -4.51284709       5.35126663       4.11581889
N       -3.71934248       5.90297360       5.22864748
C       -3.65013209       5.18058983       6.46411524
C       -2.43845468       4.55120018       6.77003875
C       -2.29867022       3.83235248       7.95860754
C       -3.36975482       3.73584158       8.84531370
C       -4.57986926       4.36655198       8.55185665
C       -4.72162809       5.09583890       7.36752024
Br      -6.39367420       5.93840045       7.05036917
S       -3.38074446       7.55926638       5.26643239
O       -4.42502572       8.26277482       4.55335836
O       -3.01468343       7.93958346       6.61455604
C       -1.89329876       7.65230902       4.29331728
H       -3.83382489       2.94787769       3.95905668
H       -1.52361885       4.19219497       1.26509108
H       -0.15877659       2.69066176      -0.06144019
H       -3.18751105       0.81603724       3.38817373
H       -5.19586736       4.56663024       4.46167536
H       -5.14924474       6.10360932       3.64029518
H       -1.59168266       4.62899813       6.09320970
H       -1.35020601       3.35799801       8.19916248
H       -3.25893862       3.18075490       9.77430150
H       -5.40258591       4.29326670       9.25912662
H       -1.15101420       6.96861590       4.70870579
H       -1.51948710       8.67722605       4.35435126
H       -2.11385481       7.41886523       3.25449222
O        4.50823734      -1.62299653       4.65516369
C        4.25337638      -2.79300573       4.37460271
N        3.35164131      -3.21297165       3.40664408
C        2.56348668      -2.39436258       2.57088889
C        2.71817203      -1.01101562       2.46820953
C        1.88737556      -0.26002536       1.62947681
C        0.88602633      -0.88602633       0.88602633
C        0.72875611      -2.27114204       0.97401771
Cl      -0.48793861      -3.12966879       0.09661777
C        1.57224133      -3.02026917       1.80642673
C        4.96152931      -3.93507779       5.08332550
N        6.23697115      -4.21447990       4.39951251
C        6.34618255      -5.37807464       3.57057997
C        6.39734790      -5.17529159       2.18705411
C        6.50681819      -6.26345397       1.31935808
C        6.56198729      -7.55939783       1.82952499
C        6.51896806      -7.77073624       3.20857359
C        6.41932603      -6.68364250       4.08201870
Br       6.38400492      -7.05426421       5.94417470
S        7.66666051      -3.53995177       4.99983095
O        7.51083831      -3.31031124       6.42000935
O        8.79674432      -4.28538861       4.48668999
C        7.69481533      -1.95631259       4.18779714
H        3.20360289      -4.21292681       3.32422956
H        3.48487424      -0.47504541       3.02098525
H        2.03286869       0.81637417       1.57150365
H        1.42918345      -4.09647470       1.86606386
H        4.31164563      -4.81786331       5.09466402
H        5.09930856      -3.66041080       6.13342989
H        6.36773591      -4.16928883       1.77686576
H        6.56184537      -6.09977596       0.24574515
H        6.65336418      -8.40693689       1.15369396
H        6.57589477      -8.78648671       3.59259776
H        7.61266045      -2.10578337       3.10989207
H        8.65152019      -1.48137924       4.41816498
H        6.89037136      -1.33038472       4.56645619
