153
Properties=species:S:1:pos:R:3 pbc="F F F"
C        0.00000000       0.00000000       0.00000000
O        2.89843411       2.34429947      -5.54366398
C        3.42361024       3.18347770      -4.81389688
N        3.25896506       3.27360780      -3.43868418
C        2.46951124       2.43598765      -2.62323925
C        1.87323603       1.25530828      -3.06885288
C        1.08820327       0.48226913      -2.20640533
C        0.88602633       0.88602633      -0.88602633
C        1.48593917       2.06095007      -0.42702663
Cl       1.28503467       2.64171173       1.18839844
C        2.28184828       2.82506384      -1.29202510
C        4.36662901       4.22934919      -5.38395439
N        5.72806696       3.66898318      -5.45391343
C        6.70794647       4.08989021      -4.49700048
C        7.07960935       3.16643689      -3.51364737
C        8.03120567       3.50760841      -2.55081616
C        8.61321632       4.77405365      -2.56364014
C        8.25395155       5.69913341      -3.54519292
C        7.30874090       5.35876915      -4.51747719
S        6.28272730       3.01320200      -6.91051394
O        5.58374480       3.65367660      -8.00373750
O        7.72909016       2.95407798      -6.88565479
C        5.70604566       1.33292859      -6.79995081
H        3.71182641       4.05378180      -2.97515105
H        2.00260012       0.89318842      -4.08511636
H        0.63677586      -0.43258038      -2.58380269
H        2.73453297       3.73988634      -0.91730270
H        4.33586011       5.12942378      -4.75888907
H        3.98971152       4.54060908      -6.36282864
H        6.64260809       2.17144334      -3.49983907
H        8.32810736       2.78120508      -1.79805406
H        9.35914399       5.03782686      -1.81702418
H        8.72582608       6.67881303      -3.55034012
H        6.06727494       0.89149917      -5.86956178
H        6.11915217       0.78296380      -7.64894844
H        4.62056882       1.30816639      -6.85847706
C        6.98931837       6.35074272      -5.51123655
C        6.72180200       7.18152059      -6.34351002
Br       6.28925065       8.52481814      -7.68922582
O       -3.88186997      -1.76056265      -5.14396494
C       -3.92831215      -2.87239919      -4.62027349
N       -3.31332458      -3.22957285      -3.42835961
C       -2.52697822      -2.40217413      -2.59958581
C       -2.40527036      -1.02221227      -2.76991456
C       -1.59246263      -0.26661005      -1.91780505
C       -0.88602633      -0.88602633      -0.88602633
C       -1.00812977      -2.26507363      -0.70071246
Cl      -0.16572777      -3.11737438       0.54475419
C       -1.83385094      -3.01539050      -1.54969578
C       -4.72678333      -3.99850533      -5.25464393
N       -6.13030434      -3.90657838      -4.81408084
C       -6.61992390      -4.83560753      -3.83930573
C       -6.86393943      -4.34329084      -2.55246333
C       -7.34473068      -5.19156227      -1.55333729
C       -7.58049839      -6.53632075      -1.83409098
C       -7.34687666      -7.03454729      -3.11685393
C       -6.87478720      -6.18681922      -4.12338081
S       -7.26361011      -3.13723376      -5.80559937
O       -6.82243427      -3.23872132      -7.18000330
O       -8.59503261      -3.55452952      -5.41926079
C       -7.09984088      -1.43827069      -5.30081349
H       -3.39325246      -4.20064789      -3.14685891
H       -2.93718032      -0.48995400      -3.55377058
H       -1.51820376       0.80689232      -2.07668672
H       -1.91012932      -4.08863562      -1.39295707
H       -4.28299374      -4.96225648      -4.97892273
H       -4.62233789      -3.92922853      -6.34158283
H       -6.69607007      -3.29418041      -2.32364001
H       -7.54752452      -4.80081618      -0.55902579
H       -7.96086131      -7.19596677      -1.05716694
H       -7.54756134      -8.08291319      -3.32450471
H       -7.23652393      -1.37167069      -4.22014128
H       -7.88265780      -0.86505867      -5.80334794
H       -6.12992644      -1.05224909      -5.60503673
C       -6.66566864      -6.75625900      -5.42937000
C       -6.49053184      -7.23316481      -6.52313595
Br      -6.20735046      -8.00428117      -8.29166298
O       -3.03260768       5.51572570       2.23806418
C       -3.54258695       4.78912296       3.08927491
N       -3.31765723       3.42646301       3.22713680
C       -2.47605733       2.62187619       2.43080462
C       -1.58549422       3.12876789       1.48313508
C       -0.79253045       2.26797178       0.71637550
C       -0.88602633       0.88602633       0.88602633
C       -1.76707694       0.36848674       1.83835218
Cl      -1.95457225      -1.32781284       2.11158855
C       -2.55006758       1.23617516       2.61269448
C       -4.49012764       5.35823890       4.13156606
N       -3.70752958       5.87463964       5.26879435
C       -3.67455340       5.12862847       6.49165530
C       -2.48049047       4.47129847       6.80790467
C       -2.37602632       3.72836535       7.98523857
C       -3.46502156       3.63562251       8.85026604
C       -4.65773004       4.29401581       8.54653203
C       -4.76405587       5.04734399       7.37358738
S       -3.33947304       7.52337278       5.34359742
O       -4.35726047       8.25912209       4.62477634
O       -2.99168742       7.87210003       6.70503547
C       -1.83271288       7.60647517       4.39973702
H       -3.85235210       2.94589010       3.94251706
H       -1.47002272       4.19601224       1.31486994
H       -0.10839258       2.69382525      -0.01421966
H       -3.23459859       0.81317659       3.34394683
H       -5.19369876       4.58026569       4.45020850
H       -5.10370101       6.13086828       3.65857995
H       -1.61998157       4.54567500       6.14823392
H       -1.44103567       3.23211391       8.23421691
H       -3.38168863       3.06167926       9.77062714
H       -5.49467610       4.22314602       9.23715712
H       -1.11091397       6.90159958       4.81582235
H       -1.44142929       8.62296685       4.48666827
H       -2.03811755       7.39620773       3.35288698
C       -6.01536329       5.71403825       7.12189610
C       -7.06333325       6.27239470       6.91110465
Br      -8.75781205       7.17520985       6.57027271
O        4.33008195      -4.81517629       1.64113933
C        4.20952702      -4.41398659       2.79747121
N        3.39047285      -3.37176703       3.20901717
C        2.55184740      -2.58134286       2.39554789
C        2.27970886      -2.86202097       1.05566736
C        1.45001215      -2.02230048       0.30456510
C        0.88602633      -0.88602633       0.88602633
C        1.14410304      -0.60096843       2.22884439
Cl       0.49544022       0.78661678       3.02952453
C        1.96606196      -1.45271157       2.98016369
C        4.96688099      -5.07851882       3.93453279
N        4.19378718      -6.23462494       4.42255146
C        3.49374847      -6.13253097       5.66855773
C        2.09813446      -6.04844892       5.61311023
C        1.35129352      -5.94986002       6.78847670
C        1.99534428      -5.93111517       8.02445067
C        3.38667098      -6.02188720       8.08971971
C        4.13832571      -6.13072899       6.91593254
S        4.56771249      -7.78319167       3.85553908
O        5.96162687      -7.81145387       3.46807815
O        4.03021385      -8.76781170       4.77079737
C        3.58460444      -7.87943683       2.37488379
H        3.43598703      -3.11551070       4.18926153
H        2.68891088      -3.73589016       0.55610386
H        1.25740044      -2.26800061      -0.73740288
H        2.16005174      -1.20962495       4.02204533
H        5.14246758      -4.34845041       4.73325497
H        5.96034054      -5.36008275       3.57272596
H        1.58284737      -6.07447601       4.65656711
H        0.26604931      -5.90039676       6.74092041
H        1.41302847      -5.86037004       8.94059651
H        3.87443527      -6.01894896       9.06159501
H        2.54402845      -7.66235023       2.62195721
H        3.66279198      -8.89885650       1.98941593
H        3.96976831      -7.18963403       1.62780993
C        5.56846038      -6.23423387       7.04860338
C        6.76619817      -6.32091922       7.15971521
Br       8.70283888      -6.46108209       7.33937365
