174
Properties=species:S:1:pos:R:3 pbc="F F F"
O        3.80833813       3.25420350      -6.45356801
C        4.33351426       4.09338173      -5.72380090
N        4.16886908       4.18351182      -4.34858821
C        3.37941527       3.34589168      -3.53314328
C        2.78314006       2.16521230      -3.97875690
C        1.99810729       1.39217315      -3.11630936
C        1.79593036       1.79593036      -1.79593036
C        2.39584319       2.97085409      -1.33693065
Cl       2.19493869       3.55161576       0.27849442
C        3.19175231       3.73496787      -2.20192912
C        5.27653304       5.13925322      -6.29385842
N        6.63797098       4.57888720      -6.36381745
C        7.61785050       4.99979423      -5.40690450
C        7.98951337       4.07634091      -4.42355140
C        8.94110969       4.41751244      -3.46072019
C        9.52312035       5.68395767      -3.47354416
C        9.16385558       6.60903743      -4.45509695
C        8.21864493       6.26867317      -5.42738121
S        7.19263133       3.92310602      -7.82041796
O        6.49364882       4.56358062      -8.91364153
O        8.63899418       3.86398200      -7.79555882
C        6.61594969       2.24283261      -7.70985484
H        4.62173044       4.96368582      -3.88505507
H        2.91250414       1.80309244      -4.99502039
H        1.54667988       0.47732364      -3.49370671
H        3.64443699       4.64979036      -1.82720673
H        5.24576413       6.03932781      -5.66879309
H        4.89961555       5.45051311      -7.27273266
H        7.55251211       3.08134737      -4.40974309
H        9.23801138       3.69110910      -2.70795808
H       10.26904801       5.94773088      -2.72692820
H        9.63573011       7.58871706      -4.46024414
H        6.97717896       1.80140320      -6.77946581
H        7.02905619       1.69286782      -8.55885247
H        5.53047284       2.21807041      -7.76838108
C        7.89922239       7.26064675      -6.42114057
C        7.63170602       8.09142462      -7.25341404
Br       7.19915467       9.43472217      -8.59912984
O       -3.44638956      -3.59184452      -6.47787555
C       -4.14965437      -4.27012430      -5.73091822
N       -4.15079913      -4.20571925      -4.34445073
C       -3.35821595      -3.36553223      -3.53470204
C       -2.57371714      -2.32296785      -4.03042428
C       -1.79875038      -1.54010650      -3.16773293
C       -1.79593036      -1.79593036      -1.79593036
C       -2.58478000      -2.83074763      -1.28810030
Cl      -2.63795196      -3.22416198       0.39405391
C       -3.36907536      -3.60392262      -2.15565132
C       -5.14678886      -5.26804429      -6.29481152
N       -6.41153673      -4.57352936      -6.59560955
C       -7.53612274      -4.76072913      -5.72769737
C       -7.89628263      -3.68642839      -4.90669467
C       -8.98369297      -3.79740218      -4.03824716
C       -9.71407078      -4.98328166      -3.98326975
C       -9.36653753      -6.05758900      -4.80386343
C       -8.28447760      -5.94788311      -5.68233860
S       -6.71539463      -4.04717621      -8.17358446
O       -5.98504513      -4.89239859      -9.09342726
O       -8.13688427      -3.82565854      -8.33599219
C       -5.94948377      -2.44048416      -8.17866920
H       -4.74592965      -4.86702825      -3.85751344
H       -2.54360384      -2.07833344      -5.08867970
H       -1.19777434      -0.73510714      -3.58482876
H       -3.97099156      -4.40908975      -1.74135278
H       -5.29789614      -6.08097150      -5.57501739
H       -4.70559819      -5.73874672      -7.17851640
H       -7.34284502      -2.75202353      -4.94873401
H       -9.26918438      -2.95442546      -3.41346872
H      -10.56510367      -5.06767350      -3.31092994
H       -9.95340917      -6.97195357      -4.75932857
H       -6.35360505      -1.84921814      -7.35522477
H       -6.19423147      -1.95836356      -9.12818145
H       -4.86963853      -2.54353644      -8.10374937
C       -7.98321959      -7.08525910      -6.51253103
C       -7.73091600      -8.03781148      -7.20781719
Br      -7.32296244      -9.57800813      -8.33203611
O       -5.27577342       5.69440825       2.54592796
C       -5.13765189       5.30779011       3.70525490
N       -4.30220630       4.27960782       4.11915499
C       -3.46384641       3.48946385       3.30513995
C       -3.21001887       3.75791636       1.95917404
C       -2.37932343       2.91909184       1.20817453
C       -1.79593036       1.79593036       1.79593036
C       -2.03561495       1.52329034       3.14472264
Cl      -1.36222748       0.15229858       3.95353398
C       -2.85870800       2.37422553       3.89571576
C       -5.88967542       5.97665668       4.84331257
N       -5.12434847       7.14687160       5.30945557
C       -4.40921288       7.06685405       6.54848231
C       -3.01344464       6.99785987       6.47810117
C       -2.25234780       6.92106958       7.64592494
C       -2.88219117       6.90914789       8.88928313
C       -4.27363826       6.98499124       8.96936046
C       -5.03964721       7.07199691       7.80305519
S       -5.52223615       8.68457654       4.72934263
O       -6.92065469       8.69273525       4.35748103
O       -4.98571326       9.68553914       5.62728259
C       -4.55701517       8.77501950       3.23660246
H       -4.33376442       4.03403078       5.10267614
H       -3.63473907       4.62138096       1.45449695
H       -2.20126120       3.15506705       0.16138199
H       -3.03817885       2.14084699       4.94240825
H       -6.04793870       5.25379786       5.65214847
H       -6.89028519       6.24288400       4.48969213
H       -2.50928621       7.01879451       5.51552185
H       -1.16721486       6.88328623       7.58657747
H       -2.28883299       6.85539513       9.79947899
H       -4.75036768       6.98762682       9.94669681
H       -3.51132036       8.57248548       3.47424212
H       -4.65113600       9.78904048       2.84060000
H       -4.94268591       8.07246549       2.50177295
C       -6.46928361       7.16090197       7.95082414
C       -7.66660409       7.23535995       8.07458064
Br      -9.60257004       7.35575221       8.27468443
O        5.22966036      -5.73379866       2.55265061
C        5.11417183      -5.32846945       3.70805562
N        4.29984696      -4.28225993       4.11886223
C        3.46114702      -3.49175364       3.30554956
C        3.18373978      -3.77588989       1.96747960
C        2.35433140      -2.93591452       1.21634388
C        1.79593036      -1.79593036       1.79593036
C        2.05929968      -1.50735907       3.13696918
Cl       1.41775133      -0.11507970       3.93522900
C        2.88093206      -2.35933107       3.88838617
C        5.87306279      -5.99177081       4.84481107
N        5.09781488      -7.14376525       5.33909551
C        4.40217023      -7.03535161       6.58702739
C        3.00666328      -6.94690794       6.53583447
C        2.26397560      -6.84207616       7.71329055
C        2.91210317      -6.82141799       8.94710103
C        4.30333313      -6.91650575       9.00815107
C        5.05080642      -7.03160085       7.83229203
S        5.46486689      -8.69537217       4.77591624
O        6.85741378      -8.72942794       4.38402925
O        4.92715858      -9.67526309       5.69611333
C        4.47663781      -8.79322008       3.29877924
H        4.34938248      -4.02297434       5.09811452
H        3.58847651      -4.65270239       1.46943808
H        2.15753326      -3.18436550       0.17581147
H        3.07909948      -2.11349832       4.92883628
H        6.05361567      -5.25969038       5.64057898
H        6.86442080      -6.27773902       4.48070150
H        2.48818387      -6.97436084       5.58105786
H        1.17874854      -6.78923550       7.66909452
H        2.33300486      -6.74580616       9.86489609
H        4.79426502      -6.91200214       9.97842414
H        3.43758124      -8.57194740       3.54851933
H        4.55026271      -9.81413401       2.91637977
H        4.86160392      -8.10710184       2.54821857
C        6.48102202      -7.13932899       7.96065871
C        7.67882758      -7.22955129       8.06816581
Br       9.61557786      -7.37543314       8.24199569
C       -0.00445707       0.01189536      -1.78238275
H       -0.66409135       0.67374010      -2.43557963
H        0.65740317      -0.63156657      -2.45157240
C       -0.90989263      -0.90692880      -0.91072765
C        0.90977584       0.90977584      -0.90977584
C       -0.00465871       1.77757030       0.00794375
H       -0.66225468       2.44313916      -0.64384735
H        0.64322798       2.43503045       0.67728295
C       -1.78241447       0.00034974      -0.00472694
H       -2.45427497      -0.65498947       0.64260836
H       -2.43311707       0.67328779      -0.65473579
C       -0.91132561       0.90220522       0.91563759
C       -0.01476271      -0.02253852       1.78660255
H       -0.67934791      -0.69751639       2.42135241
H        0.63392994       0.61504881       2.47327442
C        0.01484550      -1.77751727      -0.01636693
H        0.67870853      -2.42144646      -0.68295456
H       -0.62264859      -2.45592969       0.64226336
C        1.78714474       0.01002794       0.00389507
H        2.44202412       0.67113390       0.66197326
H        2.45385902      -0.65136977      -0.64189061
C        0.91606151      -0.90478549       0.90901405
