70
Properties=species:S:1:pos:R:3 pbc="F F F"
C        1.79167930       1.79167930      -1.79167930
C        1.52433025       3.15005705      -1.89296487
C        2.34998049       3.90541206      -2.70290473
N        3.39172264       3.39518284      -3.39294321
C        3.62260666       2.06920407      -3.27075629
C        2.85458804       1.22754767      -2.48579516
H        0.70043071       3.61380289      -1.36093025
H        2.19333531       4.97420134      -2.82420125
H        3.07519725       0.16900106      -2.41634339
C        4.73139085       1.51342276      -4.00240152
C        5.65999762       1.04795591      -4.61515441
Br       7.16147621       0.29533538      -5.60592399
C       -1.79167930      -1.79167930      -1.79167930
C       -1.58977486      -3.16489371      -1.81268359
C       -2.41258414      -3.91961895      -2.62609418
N       -3.39184065      -3.39523679      -3.39277124
C       -3.56005472      -2.05504720      -3.34746510
C       -2.78908373      -1.21270619      -2.56614095
H       -0.81771562      -3.64038520      -1.21706304
H       -2.30526598      -4.99959553      -2.68687639
H       -2.95820032      -0.14248519      -2.55985620
C       -4.60181607      -1.48409030      -4.16130877
C       -5.47429119      -1.00591389      -4.84290285
Br      -6.88500968      -0.23274309      -5.94498282
C       -1.79167930       1.79167930       1.79167930
C       -3.05337722       1.34916662       2.16480832
C       -3.81301830       2.18258233       2.96269664
N       -3.39517821       3.39171425       3.39295623
C       -2.16176035       3.79029929       3.01050738
C       -1.32437001       3.03000988       2.21355097
H       -3.44049797       0.38643843       1.84822745
H       -4.80896659       1.89396449       3.28880682
H       -0.34188778       3.38843184       1.93022209
C       -1.70510805       5.07868453       3.46342255
C       -1.32266175       6.15770717       3.84273902
Br      -0.70427842       7.90239551       4.45606166
C        1.79167930      -1.79167930       1.79167930
C        3.13740312      -1.48673720       1.94321184
C        3.89337637      -2.31422415       2.75069676
N        3.39529119      -3.39204453       3.39251298
C        2.08141443      -3.65888192       3.22227067
C        1.24025514      -2.89234014       2.43533559
H        3.59109252      -0.63296140       1.45110993
H        4.95265026      -2.12931009       2.90977755
H        0.19166132      -3.14251770       2.32636269
C        1.53868317      -4.80643599       3.90209597
C        1.08414575      -5.76751253       4.47144966
Br       0.34919717      -7.32149200       5.39204641
C       -0.00445707       0.01189536      -1.78238275
H       -0.66409135       0.67374010      -2.43557963
H        0.65740317      -0.63156657      -2.45157240
C       -0.90989263      -0.90692880      -0.91072765
C        0.90977584       0.90977584      -0.90977584
C       -0.00465871       1.77757030       0.00794375
H       -0.66225468       2.44313916      -0.64384735
H        0.64322798       2.43503045       0.67728295
C       -1.78241447       0.00034974      -0.00472694
H       -2.45427497      -0.65498947       0.64260836
H       -2.43311707       0.67328779      -0.65473579
C       -0.91132561       0.90220522       0.91563759
C       -0.01476271      -0.02253852       1.78660255
H       -0.67934791      -0.69751639       2.42135241
H        0.63392994       0.61504881       2.47327442
C        0.01484550      -1.77751727      -0.01636693
H        0.67870853      -2.42144646      -0.68295456
H       -0.62264859      -2.45592969       0.64226336
C        1.78714474       0.01002794       0.00389507
H        2.44202412       0.67113390       0.66197326
H        2.45385902      -0.65136977      -0.64189061
C        0.91606151      -0.90478549       0.90901405
