150
Properties=species:S:1:pos:R:3 pbc="F F F"
C        1.79136502       1.79136502      -1.79136502
C        2.48435211       1.22915122      -2.86035581
C        3.28941151       2.03994022      -3.66679412
C        3.40114987       3.41608480      -3.41754520
C        2.70310219       3.96253844      -2.32986163
C        1.89932452       3.15315849      -1.51962687
C        4.23958251       4.23655926      -4.28586197
C        4.02914609       5.57913736      -4.52444452
S        5.21098888       6.17408247      -5.60920265
C        5.92163589       4.60234756      -5.69907286
N        7.01373570       4.31968482      -6.45567835
N        7.63514535       5.20433218      -7.28311421
C        8.65989061       4.74046475      -7.92908403
C        9.42335200       5.58878087      -8.87436644
C        9.00966955       6.91789620      -9.06198499
C        9.69039749       7.75661472      -9.94621988
C       10.79005843       7.27629805     -10.65096095
C       11.21075999       5.95784153     -10.47140335
C       10.53197472       5.11027237      -9.58546251
Br      11.19570759       3.33712929      -9.42517530
N        5.31481765       3.68832471      -4.97078567
H        2.40811749       0.16681811      -3.07681410
H        3.82778253       1.59133557      -4.49999336
H        2.78425443       5.01898644      -2.08610688
H        1.36787078       3.59488986      -0.68076092
H        3.25755439       6.23065202      -4.14264319
H        7.31720297       3.35015841      -6.41152994
H        8.98280830       3.69661592      -7.78677847
H        8.15060453       7.31071923      -8.52012681
H        9.35878908       8.78335927     -10.08297565
H       11.32095974       7.92807877     -11.34085076
H       12.07238149       5.59953411     -11.03077341
C       -1.79136502      -1.79136502      -1.79136502
C       -2.57194228      -1.21295554      -2.78896132
C       -3.37677515      -2.02365439      -3.59571631
C       -3.40127609      -3.41517122      -3.41833256
C       -2.61544220      -3.97857504      -2.40148502
C       -1.81159999      -3.16955406      -1.59095582
C       -4.24233383      -4.23411497      -4.28555495
C       -3.97471073      -5.54826740      -4.60974984
S       -5.18222974      -6.15010607      -5.66193820
C       -5.97911127      -4.61807294      -5.62587208
N       -7.12530448      -4.35728726      -6.30650712
N       -7.74429462      -5.23022948      -7.14806764
C       -8.82674533      -4.79087237      -7.71182169
C       -9.59588818      -5.62929748      -8.66131365
C       -9.12348441      -6.92134966      -8.94471668
C       -9.80723098      -7.74880988      -9.83719123
C      -10.96853679      -7.29413133     -10.45464932
C      -11.44782507      -6.01267189     -10.17950792
C      -10.76638904      -5.17658657      -9.28473399
Br     -11.51316721      -3.45437919      -8.99046578
N       -5.38177738      -3.71140369      -4.88074695
H       -2.56436826      -0.13804203      -2.94933942
H       -3.98397282      -1.56235876      -4.37277989
H       -2.62670293      -5.04934328      -2.21330155
H       -1.21134611      -3.62468454      -0.80749090
H       -3.14950279      -6.17488283      -4.30646397
H       -7.47679169      -3.40997753      -6.19212211
H       -9.19606937      -3.77575378      -7.49437953
H       -8.21581576      -7.29363083      -8.47200398
H       -9.42983807      -8.74668273     -10.04860320
H      -11.50193155      -7.93712416     -11.15083356
H      -12.35719333      -5.67401840     -10.67147727
C       -1.79136502       1.79136502       1.79136502
C       -1.67895339       3.17735624       1.71754951
C       -2.48928939       3.98171771       2.52513875
C       -3.42152197       3.40952685       3.40373104
C       -3.51330295       2.01097114       3.47122816
C       -2.70172474       1.20380663       2.66657851
C       -4.26110037       4.27739266       4.22351071
C       -5.51980293       3.93773033       4.67519472
S       -6.18398047       5.22623861       5.58405493
C       -4.75573866       6.15796348       5.30935416
N       -4.57937099       7.41383068       5.79589720
N       -5.51696687       8.11681741       6.48880746
C       -5.16018533       9.30654845       6.86270562
C       -6.08523419      10.18823093       7.61303419
C       -7.37058418       9.70711983       7.91184674
C       -8.28236486      10.50041365       8.61045358
C       -7.91937886      11.78084437       9.01709420
C       -6.64448568      12.26866338       8.72685582
C       -5.72416433      11.47778978       8.02575549
Br      -4.02087701      12.24914847       7.68798669
N       -3.84142891       5.55070323       4.58179588
H       -0.96859385       3.64340256       1.03975331
H       -2.39394073       5.06434548       2.46082526
H       -4.20332127       1.52757011       4.15845637
H       -2.78650050       0.12239620       2.73462486
H       -6.08325575       3.03046294       4.51713090
H       -3.68916476       7.83950549       5.55022108
H       -4.15393621       9.68739550       6.62487097
H       -7.67266068       8.70824284       7.60054706
H       -9.27484554      10.11601536       8.83426310
H       -8.62875775      12.40048640       9.56064512
H       -6.37815339      13.27198973       9.05254588
C        1.79136502      -1.79136502       1.79136502
C        1.53668029      -3.15752674       1.87965211
C        2.34730236      -3.96222071       2.68662278
C        3.42076482      -3.41139434       3.40262070
C        3.65558278      -2.03118276       3.30873671
C        2.84432463      -1.22329373       2.50449152
C        4.25543095      -4.28089222       4.22568058
C        5.58283444      -4.03723892       4.51265461
S        6.21252587      -5.29514068       5.48660745
C        4.67872515      -6.08882481       5.45550634
N        4.43426479      -7.26454884       6.09028523
N        5.36825370      -7.99396610       6.76037194
C        4.93955976      -9.09570538       7.29417424
C        5.84989732      -9.99493037       8.04167163
C        7.20090802      -9.62917644       8.15946629
C        8.10114928     -10.44457634       8.84750647
C        7.66100329     -11.63217007       9.42414407
C        6.32061164     -12.00485609       9.31453715
C        5.41141423     -11.19116788       8.62512749
Br       3.61434983     -11.80253749       8.54112486
N        3.75465828      -5.46002045       4.75924929
H        0.71486647      -3.60778376       1.32909947
H        2.14018016      -5.02919172       2.74973959
H        4.45999267      -1.56062888       3.86872621
H        3.04127310      -0.15601541       2.44623304
H        6.21178527      -3.21625546       4.20280887
H        3.48534517      -7.61312393       5.98042224
H        3.88107288      -9.38658068       7.19854913
H        7.56361779      -8.70419412       7.71363868
H        9.14484122     -10.15006542       8.93021736
H        8.36116774     -12.26898235       9.95973919
H        5.99438892     -12.93671033       9.77158974
C       -0.00445707       0.01189536      -1.78238275
H       -0.66409135       0.67374010      -2.43557963
H        0.65740317      -0.63156657      -2.45157240
C       -0.90989263      -0.90692880      -0.91072765
C        0.90977584       0.90977584      -0.90977584
C       -0.00465871       1.77757030       0.00794375
H       -0.66225468       2.44313916      -0.64384735
H        0.64322798       2.43503045       0.67728295
C       -1.78241447       0.00034974      -0.00472694
H       -2.45427497      -0.65498947       0.64260836
H       -2.43311707       0.67328779      -0.65473579
C       -0.91132561       0.90220522       0.91563759
C       -0.01476271      -0.02253852       1.78660255
H       -0.67934791      -0.69751639       2.42135241
H        0.63392994       0.61504881       2.47327442
C        0.01484550      -1.77751727      -0.01636693
H        0.67870853      -2.42144646      -0.68295456
H       -0.62264859      -2.45592969       0.64226336
C        1.78714474       0.01002794       0.00389507
H        2.44202412       0.67113390       0.66197326
H        2.45385902      -0.65136977      -0.64189061
C        0.91606151      -0.90478549       0.90901405
