158
Properties=species:S:1:pos:R:3 pbc="F F F"
C        1.79136502       1.79136502      -1.79136502
C        2.48435211       1.22915122      -2.86035581
C        3.28941151       2.03994022      -3.66679412
C        3.40114987       3.41608480      -3.41754520
C        2.70310219       3.96253844      -2.32986163
C        1.89932452       3.15315849      -1.51962687
C        4.23958251       4.23655926      -4.28586197
C        4.02914609       5.57913736      -4.52444452
S        5.21098888       6.17408247      -5.60920265
C        5.92163589       4.60234756      -5.69907286
N        7.01373570       4.31968482      -6.45567835
N        7.63514535       5.20433218      -7.28311421
C        8.65989061       4.74046475      -7.92908403
C        9.42335200       5.58878087      -8.87436644
C        9.00966955       6.91789620      -9.06198499
C        9.69039749       7.75661472      -9.94621988
C       10.79005843       7.27629805     -10.65096095
C       11.21075999       5.95784153     -10.47140335
C       10.53197472       5.11027237      -9.58546251
N        5.31481765       3.68832471      -4.97078567
H        2.40811749       0.16681811      -3.07681410
H        3.82778253       1.59133557      -4.49999336
H        2.78425443       5.01898644      -2.08610688
H        1.36787078       3.59488986      -0.68076092
H        3.25755439       6.23065202      -4.14264319
H        7.31720297       3.35015841      -6.41152994
H        8.98280830       3.69661592      -7.78677847
H        8.15060453       7.31071923      -8.52012681
H        9.35878908       8.78335927     -10.08297565
H       11.32095974       7.92807877     -11.34085076
H       12.07238149       5.59953411     -11.03077341
C       11.03499558       3.76646676      -9.46398621
C       11.45627554       2.64102956      -9.36224981
Br      12.13744962       0.82129279      -9.19775066
C       -1.79136502      -1.79136502      -1.79136502
C       -2.37573459      -1.25995150      -2.93817305
C       -3.18109392      -2.07080908      -3.74424285
C       -3.40112159      -3.41712861      -3.41652966
C       -2.81183107      -3.93190669      -2.25176450
C       -2.00808343      -3.12211445      -1.44191200
C       -4.23644953      -4.23969969      -4.28585453
C       -4.10254665      -5.60595124      -4.42423008
S       -5.25087223      -6.19685629      -5.54654548
C       -5.84656626      -4.59297356      -5.78351648
N       -6.86699420      -4.29354348      -6.62856117
N       -7.49315492      -5.19098296      -7.43845386
C       -8.44127356      -4.70791236      -8.18025347
C       -9.19896313      -5.56815101      -9.11938517
C       -8.86500249      -6.93041549      -9.19413276
C       -9.54352860      -7.78220792     -10.06749558
C      -10.56141039      -7.28198947     -10.87391758
C      -10.90257017      -5.93043856     -10.80699614
C      -10.22548824      -5.06959530      -9.93262607
N       -5.22667481      -3.67206158      -5.07519164
H       -2.21433978      -0.22163299      -3.21577694
H       -3.63411034      -1.64636709      -4.63863403
H       -2.97945207      -4.96220955      -1.94768613
H       -1.56184870      -3.53889199      -0.54278086
H       -3.40245777      -6.27769478      -3.95069704
H       -7.10643395      -3.30599353      -6.66646385
H       -8.70126929      -3.63849512      -8.12643828
H       -8.07046309      -7.33929778      -8.57168972
H       -9.27407481      -8.83476926     -10.11627993
H      -11.09041923      -7.94399504     -11.55547501
H      -11.70087935      -5.55694527     -11.44486438
C      -10.64322522      -3.69151979      -9.93070355
C      -10.99307993      -2.53738154      -9.92909344
Br     -11.55876542      -0.67123762      -9.92649003
C       -1.79136502       1.79136502       1.79136502
C       -1.62157369       3.17341838       1.77886708
C       -2.43203226       3.97789757       2.58621602
C       -3.42126519       3.41024627       3.40326840
C       -3.57069476       2.01505224       3.40975526
C       -2.75922669       1.20760797       2.60527523
C       -4.25891948       4.27884548       4.22423879
C       -5.54745785       3.97351909       4.61175103
S       -6.19709164       5.25139137       5.54579100
C       -4.72324049       6.13391537       5.36590045
N       -4.51767089       7.36138533       5.91004263
N       -5.45447524       8.07437899       6.59373751
C       -5.06677111       9.23286165       7.02980663
C       -5.98636924      10.12148923       7.77864084
C       -7.30081574       9.68204936       8.00668564
C       -8.20852642      10.48392266       8.70078301
C       -7.81240015      11.73141604       9.17350125
C       -6.50848085      12.17764394       8.95388008
C       -5.59204592      11.37793522       8.25772846
N       -3.80449863       5.51881090       4.65061849
H       -0.86625760       3.63628407       1.14920805
H       -2.29160265       5.05740231       2.57010650
H       -4.30677173       1.53365545       4.04892057
H       -2.88920548       0.12873861       2.62557747
H       -6.13922625       3.09701715       4.39460620
H       -3.60208823       7.75957403       5.71722907
H       -4.03741805       9.58123288       6.84755175
H       -7.62895747       8.70940851       7.64308460
H       -9.22369849      10.13199381       8.86943170
H       -8.51851720      12.35772812       9.71364395
H       -6.21644003      13.15562493       9.33062404
C       -4.26977679      11.91877262       8.07689915
C       -3.16237639      12.37172394       7.92545459
Br      -1.37180360      13.10410791       7.68058155
C        1.79136502      -1.79136502       1.79136502
C        1.48514524      -3.14071780       1.94799610
C        2.29585383      -3.94557103       2.75472099
C        3.42037536      -3.41215082       3.40225368
C        3.70709802      -2.04815593       3.24024830
C        2.89600070      -1.23997495       2.43613422
C        4.25312686      -4.28206164       4.22681524
C        5.60036897      -4.08358369       4.44877531
S        6.21907503      -5.32634928       5.44884970
C        4.65423896      -6.05468482       5.51413252
N        4.38923889      -7.19207154       6.20778842
N        5.32034869      -7.93261034       6.86963271
C        4.87015862      -8.99242419       7.46685658
C        5.77402336      -9.89831159       8.21416436
C        7.14261699      -9.58585105       8.26108270
C        8.03729373     -10.41005522       8.94588314
C        7.57399101     -11.55333971       9.58998672
C        6.21606342     -11.87283793       9.55110352
C        5.31231802     -11.05001742       8.86537417
N        3.72781632      -5.41607369       4.83003802
H        0.62297465      -3.57769757       1.45107749
H        2.04824889      -4.99930297       2.87155961
H        4.55312432      -1.58978936       3.74643408
H        3.13366879      -0.18530532       2.32454745
H        6.24853998      -3.30341891       4.07889071
H        3.42307561      -7.50416183       6.15165389
H        3.79757799      -9.24167386       7.42695083
H        7.52346860      -8.69609145       7.76189053
H        9.09470417     -10.15707379       8.97334604
H        8.26974022     -12.19697575      10.12317330
H        5.87183254     -12.77055150      10.06030496
C        3.93114081     -11.45721795       8.87708979
C        2.77440490     -11.79824839       8.88690162
Br       0.90406077     -12.34966576       8.90276653
C       -0.00445707       0.01189536      -1.78238275
H       -0.66409135       0.67374010      -2.43557963
H        0.65740317      -0.63156657      -2.45157240
C       -0.90989263      -0.90692880      -0.91072765
C        0.90977584       0.90977584      -0.90977584
C       -0.00465871       1.77757030       0.00794375
H       -0.66225468       2.44313916      -0.64384735
H        0.64322798       2.43503045       0.67728295
C       -1.78241447       0.00034974      -0.00472694
H       -2.45427497      -0.65498947       0.64260836
H       -2.43311707       0.67328779      -0.65473579
C       -0.91132561       0.90220522       0.91563759
C       -0.01476271      -0.02253852       1.78660255
H       -0.67934791      -0.69751639       2.42135241
H        0.63392994       0.61504881       2.47327442
C        0.01484550      -1.77751727      -0.01636693
H        0.67870853      -2.42144646      -0.68295456
H       -0.62264859      -2.45592969       0.64226336
C        1.78714474       0.01002794       0.00389507
H        2.44202412       0.67113390       0.66197326
H        2.45385902      -0.65136977      -0.64189061
C        0.91606151      -0.90478549       0.90901405
