186
Properties=species:S:1:pos:R:3 pbc="F F F"
C        1.79170232       1.79170232      -1.79170232
C        1.97106461       1.46695892      -3.13511343
C        2.76203339       2.28334897      -3.94710495
C        3.37313231       3.42890194      -3.41879447
C        3.19663530       3.73236995      -2.06009266
C        2.40511309       2.91802826      -1.24845317
C        4.16910397       4.35994559      -4.30049480
O        5.54075121       4.34200748      -3.90242632
C        6.37755389       5.14383684      -4.63277428
C        7.72636112       4.77363119      -4.62420985
C        8.67339611       5.52330473      -5.32915649
C        8.26734415       6.65608589      -6.03977308
C        6.92784017       7.03270385      -6.03823994
O        6.46423268       8.13500459      -6.70950794
C        7.35583199       8.81083529      -7.50446555
C        8.66118736       8.55715636      -7.64431132
O        9.41453693       9.37090032      -8.47938363
C       10.50865287       8.89593994      -9.16149512
C       10.59123939       7.59229634      -9.66344855
C       11.73006648       7.17718974     -10.35731685
C       12.77261835       8.07159333     -10.59350794
C       12.67435676       9.38829968     -10.14595264
C       11.54364870       9.79979025      -9.43569390
Br      11.45279558      11.61260950      -8.87411457
C        9.23905729       7.47511055      -6.79028244
O       10.43917020       7.25366058      -6.68918789
C        5.98395601       6.28665538      -5.33130238
H        1.49562050       0.58715811      -3.56046664
H        2.88859060       2.02299249      -4.99580597
H        3.67085768       4.61356615      -1.63193693
H        2.27007761       3.17455135      -0.20119574
H        3.73267778       5.35904743      -4.18476930
H        4.08594878       4.05342524      -5.35080743
H        8.04110065       3.89079470      -4.07151207
H        9.71859777       5.22126626      -5.32297156
H        6.85264741       9.61216556      -8.03009975
H        9.78831193       6.87889563      -9.50765579
H       11.80512959       6.15052962     -10.70792456
H       13.65994756       7.74388239     -11.12908956
H       13.48331905      10.08452240     -10.35104546
H        4.95742600       6.63511499      -5.33601739
C       -1.79170232      -1.79170232      -1.79170232
C       -2.11280489      -3.08303613      -1.37729594
C       -2.93478701      -3.88363293      -2.17406737
C       -3.44095073      -3.39387706      -3.38600093
C       -3.09412771      -2.09775533      -3.79721486
C       -2.27416980      -1.29656351      -3.00086121
C       -4.38927487      -4.21960103      -4.22066846
O       -3.76861894      -4.55353174      -5.46303433
C       -4.52564281      -5.31319151      -6.31533069
C       -3.80802996      -6.06385782      -7.25231437
C       -4.47653380      -6.87114059      -8.17818295
C       -5.87319379      -6.91941637      -8.17059296
C       -6.58844086      -6.16293985      -7.24740325
O       -7.95857381      -6.16046676      -7.18970464
C       -8.62609231      -7.03775470      -8.00728583
C       -8.08870877      -7.85464772      -8.91929855
O       -8.93094912      -8.65706034      -9.67681142
C       -8.53472702      -9.88674223     -10.14461868
C       -7.67561354     -10.73468900      -9.43668173
C       -7.32080801     -11.97733817      -9.96642689
C       -7.85528920     -12.40020132     -11.18222911
C       -8.75595297     -11.58562730     -11.86702881
C       -9.09747445     -10.33445147     -11.34720692
Br     -10.35017807      -9.27923119     -12.31011039
C       -6.61318890      -7.75506208      -9.13619931
O       -6.01890362      -8.31325374     -10.04986131
C       -5.92101753      -5.35442683      -6.32646941
H       -1.73529801      -3.47240588      -0.43554137
H       -3.18387461      -4.88731462      -1.83619983
H       -3.47181304      -1.70506863      -4.73947909
H       -2.02518117      -0.29117401      -3.32946952
H       -5.28942137      -3.61280060      -4.37427253
H       -4.66458911      -5.13820713      -3.68738521
H       -2.72059676      -6.02633731      -7.25647335
H       -3.90816960      -7.45780162      -8.89686436
H       -9.69045988      -6.98744899      -7.81700385
H       -7.25622889     -10.43797742      -8.48065704
H       -6.61979956     -12.61308509      -9.43069912
H       -7.57289572     -13.36555491     -11.59446888
H       -9.18295159     -11.93105875     -12.80487657
H       -6.52128153      -4.76143568      -5.64584118
C       -1.79170232       1.79170232       1.79170232
C       -2.01933889       3.11943461       1.43436346
C       -2.84103995       3.92144472       2.23000264
C       -3.44036284       3.39695893       3.38350696
C       -3.18715946       2.06317028       3.73876817
C       -2.36753190       1.26065902       2.94340360
C       -4.38882070       4.22913386       4.21158980
O       -3.82240390       4.46052166       5.50225945
C       -4.58467156       5.21507756       6.35441589
C       -3.88204158       5.87279144       7.36936914
C       -4.55766867       6.66588760       8.30230106
C       -5.94708244       6.79336185       8.22275882
C       -6.64844423       6.12898386       7.22135587
O       -8.01129370       6.20704401       7.09040750
C       -8.67607367       7.07566940       7.91938977
C       -8.14817284       7.81093132       8.90355089
O       -8.98775470       8.61799657       9.65906961
C       -8.55340184       9.79653349      10.21615259
C       -7.61152649      10.63121791       9.60423987
C       -7.22127176      11.82171075      10.22159056
C       -7.80023121      12.20847022      11.42901819
C       -8.78043811      11.41064334      12.01752763
C       -9.15846603      10.21036810      11.41029872
Br     -10.51823521       9.17764680      12.24363764
C       -6.69471294       7.61665015       9.19308720
O       -6.12401341       8.09069088      10.16731438
C       -5.97423907       5.33445831       6.29321639
H       -1.56892258       3.53665915       0.53766354
H       -3.01659166       4.95423300       1.93656439
H       -3.63795991       1.64262167       4.63577918
H       -2.19164688       0.22666895       3.22750887
H       -5.32737558       3.66683360       4.28228532
H       -4.58402515       5.18903915       3.71711716
H       -2.80014773       5.77370078       7.42955890
H       -4.00026861       7.18020545       9.08236153
H       -9.72914980       7.09585173       7.66991119
H       -7.15524960      10.36283787       8.65677588
H       -6.45810527      12.44456379       9.76091471
H       -7.49035940      13.13288610      11.90967400
H       -9.24067263      11.72899809      12.94921619
H       -6.56593155       4.81359713       5.54902970
C        1.79170232      -1.79170232       1.79170232
C        2.49494400      -1.22502464       2.85316832
C        3.28679410      -2.03380280       3.67189040
C        3.37490898      -3.41231664       3.43360310
C        2.67431467      -3.96449812       2.35028511
C        1.88157462      -3.15729895       1.53272095
C        4.16666974      -4.30937012       4.35350450
O        5.27764268      -4.86173235       3.64580998
C        6.08668346      -5.69330148       4.37418007
C        7.39788112      -5.82186330       3.90445773
C        8.31106459      -6.65023418       4.56455857
C        7.90497518      -7.36098729       5.69724065
C        6.59715581      -7.24393060       6.15769755
O        6.13301700      -7.91713583       7.25859238
C        7.04514426      -8.63724755       7.98874102
C        8.33883272      -8.81963145       7.70419087
O        9.10515783      -9.60739432       8.55226873
C       10.44812414      -9.38218569       8.73577810
C       11.01880714      -8.10451652       8.72366062
C       12.39143698      -7.94592902       8.92720707
C       13.19468429      -9.05463577       9.18839957
C       12.62517964     -10.32525474       9.25817470
C       11.25519236     -10.48741922       9.03652127
Br      10.53006586     -12.23843035       9.17102344
C        8.83888657      -8.24932365       6.41624006
O        9.94670258      -8.48474790       5.95056820
C        5.68524464      -6.42041804       5.49625110
H        2.42844572      -0.15934221       3.05545733
H        3.82527201      -1.58062166       4.50149539
H        2.73839953      -5.03172299       2.14623823
H        1.33686166      -3.60374478       0.70521825
H        3.48331635      -5.09395274       4.69922541
H        4.52715506      -3.74214867       5.22087772
H        7.71319591      -5.26706809       3.02314341
H        9.33104517      -6.73600649       4.19578393
H        6.57007060      -9.06038804       8.86445408
H       10.41522876      -7.22188765       8.53774693
H       12.83464463      -6.95426447       8.87467466
H       14.26351571      -8.92845180       9.34095199
H       13.25537673     -11.18213384       9.48137634
H        4.67014261      -6.38346609       5.87494968
C       -0.00445707       0.01189536      -1.78238275
H       -0.66409135       0.67374010      -2.43557963
H        0.65740317      -0.63156657      -2.45157240
C       -0.90989263      -0.90692880      -0.91072765
C        0.90977584       0.90977584      -0.90977584
C       -0.00465871       1.77757030       0.00794375
H       -0.66225468       2.44313916      -0.64384735
H        0.64322798       2.43503045       0.67728295
C       -1.78241447       0.00034974      -0.00472694
H       -2.45427497      -0.65498947       0.64260836
H       -2.43311707       0.67328779      -0.65473579
C       -0.91132561       0.90220522       0.91563759
C       -0.01476271      -0.02253852       1.78660255
H       -0.67934791      -0.69751639       2.42135241
H        0.63392994       0.61504881       2.47327442
C        0.01484550      -1.77751727      -0.01636693
H        0.67870853      -2.42144646      -0.68295456
H       -0.62264859      -2.45592969       0.64226336
C        1.78714474       0.01002794       0.00389507
H        2.44202412       0.67113390       0.66197326
H        2.45385902      -0.65136977      -0.64189061
C        0.91606151      -0.90478549       0.90901405
