194
Properties=species:S:1:pos:R:3 pbc="F F F"
C        1.79170232       1.79170232      -1.79170232
C        1.97106461       1.46695892      -3.13511343
C        2.76203339       2.28334897      -3.94710495
C        3.37313231       3.42890194      -3.41879447
C        3.19663530       3.73236995      -2.06009266
C        2.40511309       2.91802826      -1.24845317
C        4.16910397       4.35994559      -4.30049480
O        5.54075121       4.34200748      -3.90242632
C        6.37755389       5.14383684      -4.63277428
C        7.72636112       4.77363119      -4.62420985
C        8.67339611       5.52330473      -5.32915649
C        8.26734415       6.65608589      -6.03977308
C        6.92784017       7.03270385      -6.03823994
O        6.46423268       8.13500459      -6.70950794
C        7.35583199       8.81083529      -7.50446555
C        8.66118736       8.55715636      -7.64431132
O        9.41453693       9.37090032      -8.47938363
C       10.50865287       8.89593994      -9.16149512
C       10.59123939       7.59229634      -9.66344855
C       11.73006648       7.17718974     -10.35731685
C       12.77261835       8.07159333     -10.59350794
C       12.67435676       9.38829968     -10.14595264
C       11.54364870       9.79979025      -9.43569390
C        9.23905729       7.47511055      -6.79028244
O       10.43917020       7.25366058      -6.68918789
C        5.98395601       6.28665538      -5.33130238
H        1.49562050       0.58715811      -3.56046664
H        2.88859060       2.02299249      -4.99580597
H        3.67085768       4.61356615      -1.63193693
H        2.27007761       3.17455135      -0.20119574
H        3.73267778       5.35904743      -4.18476930
H        4.08594878       4.05342524      -5.35080743
H        8.04110065       3.89079470      -4.07151207
H        9.71859777       5.22126626      -5.32297156
H        6.85264741       9.61216556      -8.03009975
H        9.78831193       6.87889563      -9.50765579
H       11.80512959       6.15052962     -10.70792456
H       13.65994756       7.74388239     -11.12908956
H       13.48331905      10.08452240     -10.35104546
H        4.95742600       6.63511499      -5.33601739
C       11.47479102      11.17372797      -9.01007230
C       11.41712271      12.32440082      -8.65361422
Br      11.32387792      14.18494149      -8.07725164
C       -1.79170232      -1.79170232      -1.79170232
C       -2.42997221      -2.90174150      -1.24142324
C       -3.25185060      -3.69801432      -2.04262239
C       -3.44063188      -3.38446838      -3.39572846
C       -2.77710036      -2.27344209      -3.93855546
C       -1.95698719      -1.47634219      -3.13826514
C       -4.38322801      -4.19160460      -4.25471174
O       -3.64455228      -4.86671541      -5.27391733
C       -4.38626510      -5.64542016      -6.12247974
C       -3.68846511      -6.67763314      -6.75810390
C       -4.34205293      -7.53180880      -7.65199560
C       -5.70135795      -7.34467440      -7.91717077
C       -6.39341353      -6.31001616      -7.29535427
O       -7.72524717      -6.06823424      -7.51526380
C       -8.40994918      -6.96840698      -8.29277668
C       -7.90359789      -8.02957431      -8.92948284
O       -8.75192578      -8.81634653      -9.69654857
C       -8.53862028     -10.16333142      -9.86413623
C       -7.99724673     -10.98259222      -8.86714533
C       -7.81623159     -12.34765036      -9.10069113
C       -8.21501363     -12.91122283     -10.31148317
C       -8.80705023     -12.11262471     -11.28893414
C       -8.97187832     -10.74353669     -11.06371784
C       -6.42305391      -8.22232698      -8.85906939
O       -5.80953299      -9.04353403      -9.52895166
C       -5.73980125      -5.45546434      -6.40664818
H       -2.30031267      -3.15125015      -0.19168244
H       -3.75009395      -4.55769883      -1.59959627
H       -2.90618121      -2.02080392      -4.98937562
H       -1.46003584      -0.61313270      -3.57265615
H       -5.10481732      -3.48698429      -4.68469289
H       -4.92219352      -4.92554526      -3.64244267
H       -2.63042079      -6.82304802      -6.54993860
H       -3.79169316      -8.33702738      -8.13411505
H       -9.45903098      -6.70465483      -8.33122690
H       -7.69172632     -10.57384911      -7.90928792
H       -7.35623965     -12.97035386      -8.33699026
H       -8.06774588     -13.97293624     -10.49223738
H       -9.13272915     -12.56348546     -12.22267230
H       -6.31335898      -4.64647404      -5.96872536
C       -9.60648724      -9.96017565     -12.09192841
C      -10.13797221      -9.30411077     -12.95305477
Br     -10.99733846      -8.24330935     -14.34542325
C       -1.79170232       1.79170232       1.79170232
C       -2.43113257       2.90091021       1.24109418
C       -3.25300750       3.69716858       2.04231123
C       -3.44062399       3.38443701       3.39576773
C       -2.77593663       2.27425445       3.93890682
C       -1.95582570       1.47716841       3.13860041
C       -4.38318382       4.19151483       4.25484570
O       -3.64426835       4.86785411       5.27306256
C       -4.38593238       5.64663356       6.12159907
C       -3.68841034       6.67977805       6.75601376
C       -4.34197051       7.53412165       7.64976518
C       -5.70095873       7.34622295       7.91602144
C       -6.39272499       6.31064687       7.29541211
O       -7.72423526       6.06808822       7.51642173
C       -8.40902309       6.96832575       8.29378400
C       -7.90296915       8.03029157       8.92939432
O       -8.75131078       8.81700701       9.69650309
C       -8.53883014      10.16425746       9.86300033
C       -7.99872633      10.98319901       8.86505893
C       -7.81850259      12.34854627       9.09752422
C       -8.21683246      12.91268644      10.30820072
C       -8.80762739      12.11435850      11.28662319
C       -8.97165546      10.74499850      11.06247889
C       -6.42260987       8.22402943       8.85781098
O       -5.80919539       9.04613317       9.52669011
C       -5.73913648       5.45593076       6.40684654
H       -2.30238105       3.14977532       0.19108889
H       -3.75216129       4.55619475       1.59903302
H       -2.90410652       2.02226098       4.98999325
H       -1.45796749       0.61461032       3.57324689
H       -5.10397964       3.48669132       4.68582354
H       -4.92309008       4.92465042       3.64244095
H       -2.63061367       6.82578661       6.54700713
H       -3.79183716       8.34006150       8.13093692
H       -9.45789309       6.70386759       8.33315205
H       -7.69358956      10.57399982       7.90727396
H       -7.35947990      12.97103688       8.33306698
H       -8.07018086      13.97462863      10.48811001
H       -9.13296896      12.56564436      12.22027359
H       -6.31243426       4.64623387       5.96989025
C       -9.60499787       9.96191336      12.09168006
C      -10.13542214       9.30607956      12.95363604
Br     -10.99307333       8.24565177      14.34734597
C        1.79170232      -1.79170232       1.79170232
C        1.95148750      -1.48080212       3.14084734
C        2.74251123      -2.29743741       3.95253868
C        3.37325823      -3.42943452       3.41813598
C        3.21626500      -3.71884783       2.05398507
C        2.42470803      -2.90427126       1.24261522
C        4.16982559      -4.36147384       4.29824492
O        5.54572577      -4.32278812       3.91667112
C        6.38335951      -5.12336271       4.64744279
C        7.72769983      -4.73733404       4.65916828
C        8.67523055      -5.48417042       5.36645637
C        8.27432832      -6.62995145       6.05892335
C        6.93948392      -7.02216327       6.03713678
O        6.48113361      -8.13767556       6.68993604
C        7.37130999      -8.81239262       7.48743022
C        8.67184775      -8.54513871       7.64566858
O        9.42495626      -9.35984129       8.48002332
C       10.50532430      -8.88022306       9.18054057
C       10.56660438      -7.58173340       9.69864650
C       11.69224810      -7.16157693      10.41074804
C       12.74247659      -8.04645988      10.64878316
C       12.66504204      -9.35883744      10.18472960
C       11.54766511      -9.77508950       9.45637824
C        9.24682155      -7.44637987       6.81124886
O       10.44533029      -7.20973028       6.72695810
C        5.99516977      -6.27889106       5.32785294
H        1.46072500      -0.61171583       3.57080443
H        2.85370681      -2.04804561       5.00563664
H        3.70585523      -4.58931045       1.62119508
H        2.30497311      -3.14994643       0.19090515
H        3.74663482      -5.36417167       4.16568801
H        4.07077273      -4.06839600       5.35101272
H        8.03841300      -3.84439945       4.12059497
H        9.71678606      -5.16987800       5.37617153
H        6.87152992      -9.62571572       7.99766708
H        9.75716865      -6.87597743       9.54171727
H       11.75105301      -6.13832962      10.77420114
H       13.61954234      -7.71475507      11.19862210
H       13.47973199     -10.04793056      10.39122436
H        4.97284978      -6.63936245       5.31634615
C       11.50005108     -11.14460620       9.01393401
C       11.46017434     -12.29157644       8.64338697
Br      11.39569701     -14.14613031       8.04424373
C       -0.00445707       0.01189536      -1.78238275
H       -0.66409135       0.67374010      -2.43557963
H        0.65740317      -0.63156657      -2.45157240
C       -0.90989263      -0.90692880      -0.91072765
C        0.90977584       0.90977584      -0.90977584
C       -0.00465871       1.77757030       0.00794375
H       -0.66225468       2.44313916      -0.64384735
H        0.64322798       2.43503045       0.67728295
C       -1.78241447       0.00034974      -0.00472694
H       -2.45427497      -0.65498947       0.64260836
H       -2.43311707       0.67328779      -0.65473579
C       -0.91132561       0.90220522       0.91563759
C       -0.01476271      -0.02253852       1.78660255
H       -0.67934791      -0.69751639       2.42135241
H        0.63392994       0.61504881       2.47327442
C        0.01484550      -1.77751727      -0.01636693
H        0.67870853      -2.42144646      -0.68295456
H       -0.62264859      -2.45592969       0.64226336
C        1.78714474       0.01002794       0.00389507
H        2.44202412       0.67113390       0.66197326
H        2.45385902      -0.65136977      -0.64189061
C        0.91606151      -0.90478549       0.90901405
