165
Properties=species:S:1:pos:R:3 pbc="F F F"
C        0.00000000       0.00000000       0.00000000
C        0.88179830       0.88179830      -0.88179830
C        1.06116059       0.55705489      -2.22520940
C        1.85212936       1.37344495      -3.03720093
C        2.46322829       2.51899792      -2.50889044
C        2.28673127       2.82246593      -1.15018863
C        1.49520906       2.00812424      -0.33854915
C        3.25919994       3.45004157      -3.39059078
O        4.63084719       3.43210345      -2.99252230
C        5.46764986       4.23393282      -3.72287026
C        6.81645710       3.86372716      -3.71430582
C        7.76349209       4.61340071      -4.41925247
C        7.35744012       5.74618187      -5.12986905
C        6.01793615       6.12279983      -5.12833592
O        5.55432866       7.22510056      -5.79960392
C        6.44592797       7.90093127      -6.59456153
C        7.75128333       7.64725233      -6.73440730
O        8.50463291       8.46099630      -7.56947960
C        9.59874884       7.98603592      -8.25159109
C        9.68133537       6.68239231      -8.75354453
C       10.82016245       6.26728572      -9.44741283
C       11.86271433       7.16168931      -9.68360392
C       11.76445274       8.47839565      -9.23604862
C       10.63374468       8.88988622      -8.52578987
Br      10.54289155      10.70270548      -7.96421055
C        8.32915327       6.56520652      -5.88037842
O        9.52926617       6.34375656      -5.77928386
C        5.07405198       5.37675136      -4.42139836
H        0.58571648      -0.32274591      -2.65056262
H        1.97868657       1.11308847      -4.08590194
H        2.76095365       3.70366212      -0.72203291
H        1.36017358       2.26464733       0.70870829
H        2.82277375       4.44914340      -3.27486527
H        3.17604476       3.14352121      -4.44090341
H        7.13119662       2.98089067      -3.16160804
H        8.80869374       4.31136223      -4.41306754
H        5.94274338       8.70226154      -7.12019573
H        8.87840790       5.96899160      -8.59775177
H       10.89522556       5.24062559      -9.79802054
H       12.75004353       6.83397836     -10.21918554
H       12.57341503       9.17461837      -9.44114143
H        4.04752198       5.72521096      -4.42611337
C       -0.88179830      -0.88179830      -0.88179830
C       -0.29764500      -1.85369466      -1.69208522
C       -1.10460679      -2.67346814      -2.48470031
C       -2.49844331      -2.52602553      -2.46664781
C       -3.06976412      -1.53120017      -1.65842155
C       -2.26423758      -0.71274640      -0.86489847
C       -3.38672460      -3.45264228      -3.26046541
O       -4.05937235      -2.71445158      -4.28164901
C       -4.89606386      -3.44474545      -5.08364363
C       -5.14527827      -2.90113635      -6.34807546
C       -5.99041976      -3.55650321      -7.24922230
C       -6.59649715      -4.75960611      -6.87738779
C       -6.35957001      -5.29456961      -5.61493228
O       -6.92630653      -6.46718689      -5.18553972
C       -7.65906747      -7.18485624      -6.09749706
C       -7.94865785      -6.83044665      -7.35383847
O       -8.73103020      -7.67964098      -8.12443763
C       -8.58796796      -7.75976092      -9.48864697
C       -7.35636577      -7.62225069     -10.13865575
C       -7.28038153      -7.72501080     -11.52946868
C       -8.42281314      -8.00980181     -12.27539260
C       -9.64374485      -8.20414533     -11.63100682
C       -9.72464551      -8.08343644     -10.24133883
Br     -11.40883512      -8.38556515      -9.41540731
C       -7.49895558      -5.47641721      -7.79936542
O       -7.84020230      -4.95741180      -8.85469250
C       -5.51944020      -4.63811730      -4.71464420
H        0.78094125      -1.98556835      -1.70890609
H       -0.63704129      -3.43307834      -3.10755735
H       -4.14983253      -1.39783964      -1.63897650
H       -2.72453013       0.04483373      -0.23641623
H       -4.09805543      -3.89539739      -2.55332961
H       -2.79085897      -4.25347803      -3.71613238
H       -4.67189155      -1.96494866      -6.63685513
H       -6.17033058      -3.12928129      -8.23351165
H       -7.99069029      -8.11669466      -5.65781570
H       -6.44794801      -7.41512801      -9.58207526
H       -6.32728346      -7.57533136     -12.03125687
H       -8.36134724      -8.08371457     -13.35814562
H      -10.52595788      -8.44488081     -12.21833615
H       -5.38782505      -5.07828388      -3.73273738
C       -0.88179830       0.88179830       0.88179830
C       -1.76702770       1.78312453       0.29327265
C       -2.58758904       2.57658222       1.09860398
C       -2.52777454       2.46846510       2.49487701
C       -1.61878672       1.56852259       3.07207652
C       -0.79968172       0.77415822       2.26804251
C       -3.45974463       3.26498955       3.37509810
O       -2.70637413       4.19782060       4.15127822
C       -3.43906823       4.99337180       4.99201291
C       -2.83929745       6.20520261       5.34999003
C       -3.49209209       7.09443211       6.20962106
C       -4.74989323       6.76297679       6.72062103
C       -5.34169322       5.55186715       6.37551152
O       -6.57003585       5.16346607       6.84553122
C       -7.27734240       6.07384632       7.59023205
C       -6.86905258       7.28694880       7.97694159
O       -7.71869064       8.06171558       8.75470259
C       -7.71038510       9.43427411       8.69171664
C       -7.45955125      10.14504887       7.51267209
C       -7.47639881      11.54161342       7.51684877
C       -7.78732886      12.23601957       8.68465912
C       -8.09380568      11.53497643       9.85011489
C       -8.05931093      10.13815883       9.85195102
Br      -8.51233738       9.23594749      11.46152271
C       -5.46623828       7.67342329       7.63507663
O       -4.90881993       8.67307131       8.07041535
C       -4.68807650       4.66313497       5.52099023
H       -1.83086273       1.87072699      -0.78805653
H       -3.27939015       3.27127074       0.62701610
H       -1.55371426       1.47812745       4.15480697
H       -0.10978140       0.07441287       2.73191836
H       -3.98592627       2.54638236       4.01447380
H       -4.19442147       3.80309364       2.76295427
H       -1.86046993       6.46266642       4.95055899
H       -3.02029629       8.03834333       6.47448390
H       -8.25185692       5.67399694       7.83934679
H       -7.22944946       9.63049515       6.58520667
H       -7.23924932      12.08776001       6.60686236
H       -7.79423759      13.32300891       8.68596094
H       -8.35399396      12.08376665      10.75141423
H       -5.17561334       3.71958927       5.30364370
C        0.88179830      -0.88179830       0.88179830
C        1.57573908      -0.31721088       1.95047493
C        2.36753318      -1.12614219       2.76909987
C        2.46488511      -2.50274711       2.52348442
C        1.77363298      -3.05269877       1.43305409
C        0.98095140      -2.24535807       0.61557297
C        3.25651935      -3.40053010       3.44278283
O        4.37464033      -3.94250821       2.73832441
C        5.18426875      -4.77361519       3.46656899
C        6.49883051      -4.89202909       3.00363048
C        7.41296821      -5.71895516       3.66422190
C        7.00451553      -6.43847330       4.79050221
C        5.69345046      -6.33149195       5.24412948
O        5.22691629      -7.01361176       6.33850509
C        6.13898022      -7.73268886       7.06975168
C        7.43528807      -7.90608180       6.79157309
O        8.20127086      -8.69431158       7.63952637
C        9.54186169      -8.46252217       7.83199198
C       10.10528711      -7.18157967       7.83040543
C       11.47580761      -7.01635513       8.04269825
C       12.28388484      -8.12195154       8.30217117
C       11.72126950      -9.39616716       8.36146035
C       10.35351492      -9.56484996       8.13105590
Br       9.63766238     -11.32069739       8.25144781
C        7.93938848      -7.32558191       5.50976781
O        9.05116339      -7.55203460       5.04910860
C        4.78062045      -5.50940911       4.58217214
H        1.50199708       0.74690166       2.15843776
H        2.89868336      -0.67465847       3.60433515
H        1.84498045      -4.11835736       1.22331087
H        0.44351589      -2.69015418      -0.21755745
H        2.57570961      -4.19095100       3.78012181
H        3.60881567      -2.83623810       4.31541562
H        6.81597398      -4.33041778       2.12730359
H        8.43550349      -5.79681455       3.30080547
H        5.66136190      -8.16352628       7.94031247
H        9.49773730      -6.30134881       7.64606517
H       11.91362755      -6.02190176       7.99834238
H       13.35109216      -7.99056557       8.46154970
H       12.35507782     -10.25071097       8.58338604
H        3.76318636      -5.48039750       4.95526244
