173
Properties=species:S:1:pos:R:3 pbc="F F F"
C        0.00000000       0.00000000       0.00000000
C        0.88179830       0.88179830      -0.88179830
C        1.06116059       0.55705489      -2.22520940
C        1.85212936       1.37344495      -3.03720093
C        2.46322829       2.51899792      -2.50889044
C        2.28673127       2.82246593      -1.15018863
C        1.49520906       2.00812424      -0.33854915
C        3.25919994       3.45004157      -3.39059078
O        4.63084719       3.43210345      -2.99252230
C        5.46764986       4.23393282      -3.72287026
C        6.81645710       3.86372716      -3.71430582
C        7.76349209       4.61340071      -4.41925247
C        7.35744012       5.74618187      -5.12986905
C        6.01793615       6.12279983      -5.12833592
O        5.55432866       7.22510056      -5.79960392
C        6.44592797       7.90093127      -6.59456153
C        7.75128333       7.64725233      -6.73440730
O        8.50463291       8.46099630      -7.56947960
C        9.59874884       7.98603592      -8.25159109
C        9.68133537       6.68239231      -8.75354453
C       10.82016245       6.26728572      -9.44741283
C       11.86271433       7.16168931      -9.68360392
C       11.76445274       8.47839565      -9.23604862
C       10.63374468       8.88988622      -8.52578987
C        8.32915327       6.56520652      -5.88037842
O        9.52926617       6.34375656      -5.77928386
C        5.07405198       5.37675136      -4.42139836
H        0.58571648      -0.32274591      -2.65056262
H        1.97868657       1.11308847      -4.08590194
H        2.76095365       3.70366212      -0.72203291
H        1.36017358       2.26464733       0.70870829
H        2.82277375       4.44914340      -3.27486527
H        3.17604476       3.14352121      -4.44090341
H        7.13119662       2.98089067      -3.16160804
H        8.80869374       4.31136223      -4.41306754
H        5.94274338       8.70226154      -7.12019573
H        8.87840790       5.96899160      -8.59775177
H       10.89522556       5.24062559      -9.79802054
H       12.75004353       6.83397836     -10.21918554
H       12.57341503       9.17461837      -9.44114143
H        4.04752198       5.72521096      -4.42611337
C       10.56488699      10.26382395      -8.10016828
C       10.50721868      11.41449680      -7.74371020
Br      10.41397390      13.27503747      -7.16734762
C       -0.88179830      -0.88179830      -0.88179830
C       -1.39548736      -0.37416149      -2.07377603
C       -2.18649704      -1.18592657      -2.89035163
C       -2.46322094      -2.50893111      -2.51896460
C       -1.95274153      -2.99937051      -1.30727379
C       -1.16091844      -2.18939689      -0.49156711
C       -3.25390408      -3.41991208      -3.42601612
O       -4.49176382      -3.76257724      -2.80113188
C       -5.31207426      -4.58423679      -3.52814188
C       -6.67172719      -4.51562362      -3.20713927
C       -7.60172404      -5.31490438      -3.87951685
C       -7.16509744      -6.19480180      -4.87359181
C       -5.81113719      -6.27330788      -5.18462683
O       -5.31611178      -7.11852569      -6.14439567
C       -6.22470314      -7.81940437      -6.89731325
C       -7.55378838      -7.82786631      -6.75128828
O       -8.31397168      -8.62510269      -7.59603443
C       -9.59329552      -8.28178422      -7.96129611
C      -10.00557004      -6.95837294      -8.15332922
C      -11.31998885      -6.68005263      -8.53481952
C      -12.21733553      -7.72019297      -8.77047905
C      -11.79924885      -9.04339500      -8.63625316
C      -10.48979174      -9.32280589      -8.23682315
C       -8.11644004      -7.05809559      -5.60020258
O       -9.28763784      -7.11709362      -5.24757514
C       -4.88311881      -5.47852716      -4.51055574
H       -1.18123763       0.64662528      -2.37892083
H       -2.57574398      -0.78020840      -3.82172461
H       -2.16497983      -4.02172704      -0.99994180
H       -0.76448973      -2.58938042       0.43775752
H       -2.63611200      -4.30834473      -3.60232570
H       -3.44982840      -2.92506121      -4.38557978
H       -7.01059910      -3.82931345      -2.43378279
H       -8.65805969      -5.24707447      -3.62798935
H       -5.71302182      -8.39208197      -7.66009686
H       -9.32427635      -6.12913747      -7.99173746
H      -11.64483273      -5.64771345      -8.64132552
H      -13.24115045      -7.50010199      -9.06195500
H      -12.49978112      -9.84882611      -8.84056761
H       -3.83636497      -5.59521430      -4.76726704
C      -10.09469174     -10.70347141      -8.13071607
C       -9.76379550     -11.85977878      -8.04185139
Br      -9.22876426     -13.72943001      -7.89816472
C       -0.88179830       0.88179830       0.88179830
C       -0.33382768       1.51205220       1.99754501
C       -1.13490352       2.33395380       2.79391792
C       -2.48555396       2.53078099       2.47478170
C       -3.02618943       1.87523477       1.35796163
C       -2.22600991       1.05510671       0.56076583
C       -3.34388429       3.47362463       3.28232337
O       -4.36988406       2.73664534       3.94894354
C       -5.21862284       3.47869676       4.72713334
C       -5.86257989       2.77901966       5.75289052
C       -6.75743576       3.43280416       6.60590534
C       -7.01515997       4.79425994       6.42407113
C       -6.38502608       5.48827128       5.39577454
O       -6.59735368       6.82230040       5.15937906
C       -7.37590611       7.50641442       6.05910024
C       -8.02016400       6.99804749       7.11473148
O       -8.78693402       7.84627867       7.90189611
C       -8.96205619       7.62730756       9.24701210
C       -7.97165401       7.07718482      10.06843338
C       -8.21266480       6.89073524      11.43146096
C       -9.42423465       7.29265016      11.99112275
C      -10.39495350       7.89324089      11.19070263
C      -10.16233040       8.06356345       9.82352692
C       -7.95780746       5.51627013       7.30066062
O       -8.63459620       4.90205099       8.11565941
C       -5.49535399       4.83448920       4.54235851
H        0.71405860       1.37612013       2.25147166
H       -0.69364672       2.82590748       3.65812279
H       -4.07514270       2.01060844       1.10089755
H       -2.65860855       0.56442021      -0.30691614
H       -3.76697707       4.20066609       2.57913926
H       -2.73258462       4.00608630       4.02179846
H       -5.66021306       1.71929392       5.89418836
H       -7.24608486       2.88091387       7.40612478
H       -7.40803282       8.55692670       5.80024112
H       -7.01331273       6.76900726       9.66283128
H       -7.45420539       6.42406578      12.05560052
H       -9.61082617       7.14115145      13.05122982
H      -11.32928272       8.22125724      11.63863488
H       -5.05077064       5.40980874       3.73826693
C      -11.18367651       8.70689760       9.03830511
C      -12.03905388       9.24568996       8.38068184
Br     -13.42212673      10.11687162       7.31736063
C        0.88179830      -0.88179830       0.88179830
C        1.84998386      -1.69621497       0.29722605
C        2.66979531      -2.48886425       1.10411568
C        2.52610969      -2.46672141       2.49828554
C        1.53495569      -1.65433843       3.07009171
C        0.71647017      -0.86078088       2.26463140
C        3.45297681      -3.26064166       3.38621381
O        2.71387131      -4.27806952       4.06353211
C        3.44425799      -5.07978133       4.90041362
C        2.89796084      -6.34209683       5.15443241
C        3.55318045      -7.24273840       6.00022641
C        4.75887379      -6.87249908       6.60211817
C        5.29655285      -5.61210429       6.36041476
O        6.47180885      -5.18433060       6.92289369
C        7.18900285      -6.09624652       7.65617139
C        6.83203276      -7.35086786       7.95004235
O        7.68125785      -8.12164488       8.73220608
C        7.75737703      -9.48643731       8.59256151
C        7.61486665     -10.13934345       7.36306210
C        7.71373370     -11.53062154       7.29050576
C        7.99958280     -12.27426666       8.43415809
C        8.19888276     -11.62716299       9.65285126
C        8.08207710     -10.23696903       9.73037465
C        5.47563442      -7.79398269       7.50512110
O        4.95474044      -8.84701618       7.85054998
C        4.64025886      -4.71230528       5.51963757
H        1.97894259      -1.71624833      -0.78165773
H        3.42650366      -3.11497828       0.63619504
H        1.40452104      -1.63167303       4.15045461
H       -0.03821255      -0.22906638       2.72525880
H        3.89949739      -2.55280137       4.09448366
H        4.25101271      -3.72001689       2.78943978
H        1.95975420      -6.62963991       4.68430123
H        3.12382858      -8.22540690       6.18388803
H        8.12288351      -5.65816738       7.98414976
H        7.40680550      -9.58462615       6.45371962
H        7.56018839     -12.03453682       6.33914648
H        8.07045869     -13.35737176       8.37537699
H        8.44040517     -12.21278786      10.53598181
H        5.08267745      -3.73192558       5.38424328
C        8.31611581      -9.60822145      11.00454197
C        8.51212324      -9.08164534      12.07165709
Br       8.82905066      -8.23021632      13.79709200
