169
Properties=species:S:1:pos:R:3 pbc="F F F"
C        0.00000000       0.00000000       0.00000000
C        0.88164496       0.88164496      -0.88164496
C        1.93157612       0.31010829      -1.59921474
C        2.74273252       1.11847943      -2.39836630
C        2.49274390       2.49465158      -2.48921108
C        1.43776255       3.06244300      -1.76329042
C        0.63275728       2.25258672      -0.95719778
C        3.39154684       3.31302636      -3.33723573
O        4.55667767       3.01597996      -3.54682245
O        2.68036839       4.38564711      -3.85309081
C        3.26021698       5.29917032      -4.76051359
C        2.71347638       6.58548233      -4.75121086
C        3.19766609       7.55100574      -5.63572707
C        4.22812833       7.22138549      -6.52310035
C        4.75896188       5.93231878      -6.53522171
O        5.76903238       5.55470509      -7.38398540
C        6.33898067       6.52962624      -8.16303164
C        5.96627500       7.81261610      -8.24280011
O        6.63915927       8.67221004      -9.09978157
C        6.87210521       9.97559348      -8.72450879
C        7.23152476      10.32374921      -7.41649198
C        7.49067602      11.65706690      -7.09102025
C        7.42223451      12.64349248      -8.07363560
C        7.10124508      12.29876068      -9.38683069
C        6.83165416      10.96681317      -9.71255807
C        4.76431669       8.22591306      -7.46161285
O        4.22834130       9.32159989      -7.57016013
C        4.26502526       4.95923269      -5.66591345
H        2.12964846      -0.75733062      -1.54054060
H        3.56805868       0.67243206      -2.95117970
H        1.24243989       4.13130796      -1.80330183
H       -0.18024312       2.69912780      -0.38975961
H        1.91295765       6.83726756      -4.06058371
H        2.77573621       8.55406569      -5.63148420
H        7.16891748       6.12274951      -8.72660408
H        7.30908858       9.57082529      -6.63814891
H        7.74560369      11.92561085      -6.06876613
H        7.62277819      13.68092386      -7.81791762
H        7.06245972      13.07343519     -10.14813613
H        4.67639604       3.95583481      -5.71155495
C        6.52017790      10.65107026     -11.08255404
C        6.25931654      10.38663557     -12.22992567
Br       5.83752578       9.95906704     -14.08512854
C       -0.88164496      -0.88164496      -0.88164496
C       -0.63942220      -2.25306246      -0.94841449
C       -1.44064509      -3.05724052      -1.76169265
C       -2.49161690      -2.48978136      -2.49520830
C       -2.72742211      -1.11070488      -2.42536897
C       -1.91848829      -0.30660015      -1.61745335
C       -3.30319083      -3.38194510      -3.35667301
O       -2.86064734      -4.40503721      -3.85379553
O       -4.59467326      -2.88442613      -3.44000693
C       -5.61528421      -3.56881706      -4.13579961
C       -6.63840614      -2.76514223      -4.64662121
C       -7.70969146      -3.35257995      -5.32212749
C       -7.74784559      -4.74207483      -5.48269375
C       -6.73011230      -5.53779239      -4.95859768
O       -6.71740505      -6.90409574      -5.08622209
C       -7.69514361      -7.47679447      -5.85970047
C       -8.71816916      -6.85030367      -6.45321837
O       -9.63822514      -7.58221285      -7.19071290
C      -10.16584257      -7.05783222      -8.34853268
C       -9.39290341      -6.32280454      -9.25605800
C       -9.96510103      -5.83892703     -10.43473510
C      -11.30051057      -6.11117438     -10.72767764
C      -12.06639076      -6.87439843      -9.84604725
C      -11.49874727      -7.35094454      -8.66133360
C       -8.86391889      -5.38715755      -6.20076616
O       -9.83741202      -4.73189292      -6.55079638
C       -5.66735450      -4.95631550      -4.26650140
H        0.16920672      -2.70379305      -0.37827210
H       -1.24477223      -4.12679471      -1.82010349
H       -3.52348301      -0.64906253      -3.00450415
H       -2.10071188       0.76443510      -1.57236752
H       -6.60509079      -1.68629957      -4.51941856
H       -8.50807700      -2.73084064      -5.72236847
H       -7.53079121      -8.54349097      -5.94398888
H       -8.34605455      -6.11342982      -9.05857841
H       -9.36734267      -5.24814382     -11.12449418
H      -11.74442422      -5.73230784     -11.64488762
H      -13.10314679      -7.09146509     -10.08941916
H       -4.90019511      -5.59830953      -3.84528116
C      -12.31887043      -8.14833558      -7.78659619
C      -13.00572357      -8.81615058      -7.05400362
Br     -14.11630702      -9.89595096      -5.86946339
C       -0.88164496       0.88164496       0.88164496
C       -2.21787088       0.53895255       1.08407573
C       -3.02567367       1.35052383       1.88338075
C       -2.49108743       2.49534565       2.49017348
C       -1.14838089       2.83498463       2.28013045
C       -0.34420086       2.02583584       1.47250510
C       -3.39255816       3.33349043       3.31576035
O       -4.59529295       3.40381488       3.12037225
O       -2.65612271       3.94288212       4.32010149
C       -3.26422138       4.74568372       5.30999579
C       -2.44821169       5.73359044       5.86836743
C       -2.94886858       6.55712221       6.87840811
C       -4.26511001       6.38614262       7.32136154
C       -5.06828143       5.38968961       6.76853132
O       -6.36478047       5.17769566       7.16524674
C       -6.90562988       6.06450651       8.06150216
C       -6.27862205       7.08605598       8.65701317
O       -6.96758324       7.88349831       9.56006934
C       -6.73318329       9.23899137       9.60003282
C       -6.53458679       9.99752770       8.43965146
C       -6.33341225      11.37682359       8.52852731
C       -6.35948416      12.00941856       9.77045987
C       -6.59392180      11.26564853      10.92726611
C       -6.78535431       9.88402462      10.84164647
C       -4.82162755       7.24936818       8.38084688
O       -4.10183872       8.03864899       8.97961361
C       -4.56573406       4.55227037       5.77216697
H       -2.64028049      -0.35053087       0.62310882
H       -4.07147389       1.08683496       2.03336159
H       -0.72184462       3.73127107       2.72393399
H        0.69543265       2.29770929       1.30636765
H       -1.42630905       5.86283508       5.52166479
H       -2.31757570       7.32823296       7.31547745
H       -7.94962402       5.83534037       8.23330667
H       -6.52818335       9.53014843       7.45973100
H       -6.15546366      11.95768074       7.62683628
H       -6.20112392      13.08286310       9.83763265
H       -6.62451236      11.77002765      11.88949104
H       -5.20143261       3.76713779       5.37521540
C       -7.04042731       9.15586565      12.05750924
C       -7.25405094       8.54603252      13.07579431
Br      -7.59946229       7.55998392      14.72227515
C        0.88164496      -0.88164496       0.88164496
C        0.29981145      -1.88257797       1.65850973
C        1.10584669      -2.68261884       2.47111272
C        2.49386814      -2.48901585       2.49372257
C        3.07124124      -1.47962955       1.71262518
C        2.26133530      -0.67438793       0.90681856
C        3.30477942      -3.35230328       3.38472623
O        2.86547841      -3.84050676       4.41349491
O        4.56337515      -3.52609827       2.82963289
C        5.53156549      -4.36608376       3.42225163
C        6.86230379      -4.03074844       3.15711734
C        7.89204595      -4.82052702       3.67182592
C        7.58130068      -5.94080698       4.45050651
C        6.25114121      -6.27609810       4.69926306
O        5.88968065      -7.36303429       5.45500793
C        6.89273775      -8.06686924       6.07203155
C        8.20917205      -7.85331101       5.95920814
O        9.09951773      -8.67252933       6.63910383
C       10.24189748      -8.13932930       7.19098069
C       10.25237939      -6.89190707       7.82747949
C       11.42934611      -6.40705258       8.40236447
C       12.59173204      -7.17592925       8.37170130
C       12.57916480      -8.43556544       7.77210620
C       11.40532092      -8.91832040       7.18738408
C        8.65090952      -6.78668863       5.01424445
O        9.81982453      -6.59917407       4.70110272
C        5.21881903      -5.50028290       4.17106948
H       -0.77512608      -2.04496769       1.64301683
H        0.64931051      -3.45803337       3.08432656
H        4.14331009      -1.29955275       1.73418684
H        2.71331759       0.11272014       0.30804684
H        7.09931966      -3.15994876       2.55154049
H        8.92962004      -4.56283477       3.46883130
H        6.47540200      -8.84703614       6.69583293
H        9.35516152      -6.28283920       7.88006206
H       11.43846383      -5.42748446       8.87403238
H       13.50719169      -6.79606291       8.81836507
H       13.48741616      -9.03241373       7.76420116
H        4.19108151      -5.79583199       4.35687230
C       11.43064439     -10.22982959       6.59332823
C       11.45185279     -11.32821854       6.09580645
Br      11.48614499     -13.10422057       5.29135581
