190
Properties=species:S:1:pos:R:3 pbc="F F F"
C        1.79154899       1.79154899      -1.79154899
C        2.84148015       1.22001231      -2.50911877
C        3.65263655       2.02838346      -3.30827033
C        3.40264793       3.40455560      -3.39911511
C        2.34766657       3.97234702      -2.67319445
C        1.54266131       3.16249075      -1.86710181
C        4.30145087       4.22293039      -4.24713976
O        5.46658170       3.92588398      -4.45672647
O        3.59027242       5.29555113      -4.76299483
C        4.17012100       6.20907434      -5.67041761
C        3.62338041       7.49538635      -5.66111489
C        4.10757011       8.46090977      -6.54563109
C        5.13803236       8.13128952      -7.43300437
C        5.66886590       6.84222280      -7.44512574
O        6.67893640       6.46460912      -8.29388942
C        7.24888469       7.43953027      -9.07293566
C        6.87617902       8.72252012      -9.15270413
O        7.54906330       9.58211407     -10.00968560
C        7.78200924      10.88549750      -9.63441281
C        8.14142879      11.23365324      -8.32639600
C        8.40058004      12.56697092      -8.00092427
C        8.33213853      13.55339650      -8.98353963
C        8.01114910      13.20866470     -10.29673471
C        7.74155818      11.87671719     -10.62246210
C        5.67422071       9.13581709      -8.37151688
O        5.13824533      10.23150392      -8.48006415
C        5.17492929       5.86913671      -6.57581747
H        3.03955248       0.15257340      -2.45044463
H        4.47796270       1.58233608      -3.86108373
H        2.15234391       5.04121199      -2.71320586
H        0.72966090       3.60903182      -1.29966364
H        2.82286167       7.74717159      -4.97048773
H        3.68564023       9.46396972      -6.54138823
H        8.07882150       7.03265353      -9.63650810
H        8.21899260      10.48072931      -7.54805294
H        8.65550771      12.83551488      -6.97867016
H        8.53268222      14.59082788      -8.72782164
H        7.97236374      13.98333922     -11.05804016
H        5.58630006       4.86573884      -6.62145898
C        7.43008193      11.56097428     -11.99245807
C        7.16922056      11.29653959     -13.13982969
Br       6.74742980      10.86897107     -14.99503257
C       -1.79154899      -1.79154899      -1.79154899
C       -1.55850049      -3.16505676      -1.84705398
C       -2.35966008      -3.96931930      -2.66031095
C       -3.40148300      -3.39971069      -3.40512494
C       -3.62808189      -2.01856751      -3.34655864
C       -2.81917488      -1.21446968      -2.53860931
C       -4.21327489      -4.29222073      -4.26602539
O       -3.77446991      -5.32183793      -4.75288431
O       -5.50062037      -3.78630765      -4.36189037
C       -6.52113539      -4.46843468      -5.06004289
C       -7.53500395      -3.66125271      -5.58362498
C       -8.60565162      -4.24593560      -6.26252375
C       -8.65243931      -5.63622372      -6.41366322
C       -7.64399580      -6.43531804      -5.87690060
O       -7.63999142      -7.80253908      -5.99490444
C       -8.61631043      -8.37382365      -6.77121654
C       -9.63075002      -7.74439827      -7.37625498
O      -10.55075786      -8.47503500      -8.11507010
C      -11.06659643      -7.95513013      -9.28019299
C      -10.28220815      -7.23189812     -10.18737175
C      -10.84276366      -6.75233003     -11.37338154
C      -12.17797689      -7.01731088     -11.67378688
C      -12.95532397      -7.76896889     -10.79225565
C      -12.39931297      -8.24113182      -9.60029269
C       -9.76798071      -6.27853537      -7.13503860
O      -10.73438576      -5.61897350      -7.49645413
C       -6.58203273      -5.85641978      -5.18143096
H       -0.75705017      -3.61739998      -1.26812036
H       -2.17089830      -5.04059673      -2.70988749
H       -4.41682551      -1.55546380      -3.93447245
H       -2.99418477      -0.14189997      -2.50227162
H       -7.49500313      -2.58180210      -5.46371576
H       -9.39684298      -3.62147066      -6.67268454
H       -8.45886709      -9.44220546      -6.84691059
H       -9.23531735      -7.02844531      -9.98401219
H      -10.23607841      -6.17058535     -12.06302898
H      -12.61281474      -6.64180734     -12.59670967
H      -13.99185649      -7.98050580     -11.04138082
H       -5.82235445      -6.50077347      -4.75036995
C      -13.23109217      -9.02662539      -8.72579672
C      -13.92770726      -9.68447625      -7.99340634
Br     -15.05407493     -10.74816547      -6.80919304
C       -1.79154899       1.79154899       1.79154899
C       -2.72858373       1.20255719       2.63947031
C       -3.54044939       2.00991712       3.43892382
C       -3.40309070       3.40423940       3.39898853
C       -2.46137849       3.98919378       2.54263578
C       -1.65604281       3.17927730       1.73693375
C       -4.29900258       4.21880548       4.25371295
O       -5.41413337       3.84973674       4.58532204
O       -3.64397947       5.38455189       4.62028703
C       -4.22658743       6.32390921       5.49911632
C       -3.79470153       7.64383132       5.34134880
C       -4.28857549       8.64042441       6.18511107
C       -5.21362174       8.30780785       7.18089666
C       -5.62925011       6.98664825       7.34031608
O       -6.53297497       6.60466324       8.29979673
C       -7.12115995       7.59476451       9.04542615
C       -6.85480009       8.90528365       8.99131953
O       -7.52916512       9.77940197       9.83229588
C       -7.90201775      11.02328333       9.37661846
C       -8.39218483      11.22842073       8.08087246
C       -8.78969891      12.50423582       7.67454050
C       -8.72875836      13.57366050       8.56665580
C       -8.27664389      13.36933239       9.87057224
C       -7.86885879      12.09572471      10.27615398
C       -5.75822140       9.34366523       8.07966804
O       -5.31135905      10.48352650       8.05492785
C       -5.12384545       5.98461914       6.51141889
H       -2.83833397       0.12172267       2.68251387
H       -4.27819577       1.54916113       4.09402561
H       -2.35595574       5.06962583       2.48118019
H       -0.93173566       3.63829493       1.06832578
H       -3.07580833       7.89786469       4.56684797
H       -3.95594074       9.66960298       6.06545446
H       -7.86599717       7.17347091       9.70851505
H       -8.46608807      10.40771350       7.37397328
H       -9.14668226      12.66308229       6.65992819
H       -9.03716268      14.56622448       8.24794458
H       -8.24446684      14.20711644      10.56215984
H       -5.44269401       4.95949177       6.67131210
C       -7.42419349      11.92431066      11.63501012
C       -7.05178631      11.78075140      12.77305214
Br      -6.44963540      11.54862822      14.61316982
C        1.79154899      -1.79154899       1.79154899
C        1.53538623      -3.15946926       1.87575574
C        2.33670800      -3.96351783       2.68906450
C        3.40157948      -3.39964712       3.40509203
C        3.65137423      -2.02403216       3.31780165
C        2.84239971      -1.21991596       2.50993820
C        4.21283034      -4.29126707       4.26742361
O        3.76476149      -5.30412312       4.78030755
O        5.51039490      -3.80689774       4.33152574
C        6.53109032      -4.49480724       5.02371540
C        7.56823415      -3.69683228       5.51481521
C        8.64041697      -4.28856586       6.18512814
C        8.66542060      -5.67659265       6.36031300
C        7.63360628      -6.46681181       5.85579635
O        7.60764614      -7.83145190       5.99833690
C        8.58751183      -8.40638573       6.76745306
C        9.62355671      -7.78468733       7.34315923
O       10.54365135      -8.51857399       8.07863763
C       11.08936220      -7.98756446       9.22499289
C       10.33421359      -7.23453067      10.13273377
C       10.92429142      -6.74427886      11.29990495
C       12.25980173      -7.02781681      11.58145613
C       13.00787053      -7.80868987      10.69998811
C       12.42235946      -8.29172511       9.52665290
C        9.78222962      -6.32599353       7.07333153
O       10.76641948      -5.67759660       7.40579731
C        6.56970648      -5.88130843       5.16886856
H        0.71584903      -3.60749900       1.31922248
H        2.13003293      -5.03020124       2.76114834
H        4.45855913      -1.56485949       3.88334313
H        3.03558725      -0.15146112       2.45130800
H        7.54510221      -2.61911667       5.37630211
H        9.44970414      -3.67125636       6.57003769
H        8.41266438      -9.47027589       6.86504286
H        9.28759069      -7.01596005       9.94422412
H       10.34040005      -6.13970250      11.98959020
H       12.71765430      -6.64397560      12.48970185
H       14.04481631      -8.03435063      10.93457618
H        5.79119771      -6.51943317       4.76286700
C       13.22437358      -9.10727473       8.65186597
C       13.89606041      -9.79029753       7.91923191
Br      14.98212119     -10.89468764       6.73462461
C       -0.00445707       0.01189536      -1.78238275
H       -0.66409135       0.67374010      -2.43557963
H        0.65740317      -0.63156657      -2.45157240
C       -0.90989263      -0.90692880      -0.91072765
C        0.90977584       0.90977584      -0.90977584
C       -0.00465871       1.77757030       0.00794375
H       -0.66225468       2.44313916      -0.64384735
H        0.64322798       2.43503045       0.67728295
C       -1.78241447       0.00034974      -0.00472694
H       -2.45427497      -0.65498947       0.64260836
H       -2.43311707       0.67328779      -0.65473579
C       -0.91132561       0.90220522       0.91563759
C       -0.01476271      -0.02253852       1.78660255
H       -0.67934791      -0.69751639       2.42135241
H        0.63392994       0.61504881       2.47327442
C        0.01484550      -1.77751727      -0.01636693
H        0.67870853      -2.42144646      -0.68295456
H       -0.62264859      -2.45592969       0.64226336
C        1.78714474       0.01002794       0.00389507
H        2.44202412       0.67113390       0.66197326
H        2.45385902      -0.65136977      -0.64189061
C        0.91606151      -0.90478549       0.90901405
