194
Properties=species:S:1:pos:R:3 pbc="F F F"
C        1.79176565       1.79176565      -1.79176565
C        2.95279185       2.35342085      -1.26689327
C        3.76500781       3.15117165      -2.07806172
C        3.41516036       3.38954981      -3.41424223
C        2.23939968       2.82208781      -3.92985292
C        1.42953153       2.02284201      -3.11752095
C        4.33472279       4.22246065      -4.23838293
O        5.41956594       4.61623199      -3.84587600
O        3.76201269       4.44536594      -5.47986427
C        4.47451363       5.16380898      -6.45603179
C        4.37439213       4.67186565      -7.76099458
C        4.99955658       5.34960031      -8.80365613
C        5.68428612       6.53394872      -8.52429233
C        5.75534728       7.03814637      -7.22862034
C        5.15804647       6.34800493      -6.17816835
O        6.38156047       8.22607049      -6.95194818
C        6.51302863       9.13356093      -8.00476569
C        6.41616312       8.78492728      -9.29979918
O        6.45827215       9.73259578     -10.31656856
C        5.70810308       9.52497648     -11.45649202
C        4.41704098       8.97571278     -11.41403769
C        3.71739553       8.72729148     -12.59719756
C        4.28046350       9.07421605     -13.82378761
C        5.53511565       9.68413055     -13.86967329
C        6.24560879       9.91247834     -12.68718176
Br       7.94418702      10.75053969     -12.80645706
C        6.28271258       7.32952982      -9.60043098
O        6.58364890       6.81787438     -10.66935128
C        6.72201179      10.55013334      -7.57209669
F        7.96102072      11.00388244      -7.89028006
F        5.82535955      11.39871655      -8.13860584
F        6.58853243      10.70237355      -6.22674674
H        3.23980716       2.17491884      -0.23323885
H        4.67547405       3.58143130      -1.66283347
H        1.94001229       2.98168128      -4.96399660
H        0.52437986       1.58307221      -3.53001804
H        3.80650600       3.76564637      -7.96540074
H        4.92901904       4.98043999      -9.82294242
H        5.21046726       6.74702557      -5.16934038
H        3.94757159       8.71180771     -10.47183796
H        2.73953242       8.25819962     -12.56189640
H        3.73898833       8.87428672     -14.74655252
H        5.95463165       9.96764771     -14.83026007
C       -1.79176565      -1.79176565      -1.79176565
C       -1.44429864      -2.00571901      -3.12308832
C       -2.24599140      -2.82204148      -3.92620830
C       -3.39714052      -3.42306794      -3.39874394
C       -3.73951911      -3.19512847      -2.05669283
C       -2.93526757      -2.38004561      -1.25458132
C       -4.19545717      -4.30659207      -4.29351713
O       -3.84560281      -4.61676742      -5.41930370
O       -5.34849437      -4.70284155      -3.63590698
C       -6.23719703      -5.59270946      -4.26444791
C       -6.78800084      -6.57886381      -3.44038770
C       -7.72152649      -7.47049705      -3.96078949
C       -8.11659751      -7.33300141      -5.29292824
C       -7.58987689      -6.33010938      -6.10212773
C       -6.63354269      -5.45550378      -5.59517328
O       -8.00863220      -6.15504538      -7.39590157
C       -9.26954321      -6.65468740      -7.72712463
C       -9.91025856      -7.58847053      -7.00216049
O      -11.20473112      -7.99186068      -7.31084469
C      -12.05773284      -8.34658747      -6.28525128
C      -12.08651634      -7.65770272      -5.06257240
C      -12.92316365      -8.08842126      -4.03029967
C      -13.77245412      -9.17482603      -4.23118701
C      -13.79929580      -9.82206541      -5.46755829
C      -12.94581695      -9.40557186      -6.49388008
Br     -13.02787112     -10.31658396      -8.15672868
C       -9.16104898      -8.19068714      -5.86093727
O       -9.41071026      -9.28472078      -5.37544351
C       -9.88096734      -6.02491195      -8.93836252
F       -9.98459201      -6.89918077      -9.97141044
F      -11.12679254      -5.54208428      -8.69380513
F       -9.15054969      -4.97192883      -9.39517420
H       -0.55234281      -1.54949790      -3.54612415
H       -1.96421393      -2.99074714      -4.96477774
H       -4.62305450      -3.64990342      -1.61273225
H       -3.20702237      -2.21612062      -0.21432711
H       -6.49424450      -6.64900742      -2.39430119
H       -8.15946057      -8.24074547      -3.33219541
H       -6.22878392      -4.67059200      -6.22745730
H      -11.44820513      -6.79819788      -4.88481426
H      -12.90680935      -7.58219491      -3.07062419
H      -14.41936803      -9.51554493      -3.42491461
H      -14.47959478     -10.65492660      -5.61801805
C       -1.79176565       1.79176565       1.79176565
C       -2.90931336       2.41789785       1.24589477
C       -3.72203386       3.21570957       2.05649775
C       -3.41609036       3.38962236       3.41323967
C       -2.28368597       2.75746372       3.95019072
C       -1.47332058       1.95829513       3.13827879
C       -4.33518070       4.22626067       4.23412500
O       -5.38817910       4.67677866       3.81671617
O       -3.80357603       4.37955938       5.50410749
C       -4.52618836       5.08804852       6.48011752
C       -4.49592392       4.54368776       7.76764067
C       -5.13547105       5.20559724       8.81174474
C       -5.76356407       6.42556996       8.55339314
C       -5.76471318       6.98067732       7.27672350
C       -5.15315101       6.30776551       6.22330322
O       -6.33434713       8.20182514       7.02340687
C       -6.47266108       9.07341462       8.10527955
C       -6.43985317       8.67265349       9.38838291
O       -6.48601177       9.58221843      10.43920629
C       -5.78946865       9.30250439      11.59759855
C       -4.51937146       8.70504674      11.58237326
C       -3.87651095       8.38494079      12.78043283
C       -4.47374103       8.70715838      13.99756774
C       -5.70532904       9.36362037      14.01997008
C       -6.35980451       9.66408254      12.82138184
Br      -8.02893273      10.56298694      12.90926410
C       -6.37328009       7.20284057       9.63655273
O       -6.73497045       6.66342118      10.67248293
C       -6.61094359      10.51240105       7.72089717
F       -7.84347570      11.00204502       8.00966249
F       -5.70581850      11.30321187       8.35365158
F       -6.41918300      10.70992808       6.38854164
H       -3.16211810       2.28989876       0.19594801
H       -4.59864661       3.69668343       1.62440878
H       -2.01925985       2.86607884       5.00035148
H       -0.60226617       1.46813655       3.56706739
H       -3.97107242       3.60883979       7.95764090
H       -5.11891730       4.79577263       9.81771152
H       -5.15089852       6.74630159       5.22963311
H       -4.02361785       8.45866795      10.64893147
H       -2.91640543       7.87954360      12.76367941
H       -3.97678030       8.45149445      14.93155283
H       -6.15118424       9.62693055      14.97442464
C        1.79176565      -1.79176565       1.79176565
C        1.43202817      -2.02439661       3.11668120
C        2.23386854      -2.84073322       3.91963943
C        3.39741234      -3.42308264       3.39845742
C        3.75202433      -3.17640370       2.06291239
C        2.94762820      -2.36134607       1.26092022
C        4.19561527      -4.30767339       4.29227771
O        3.83683508      -4.63424564       5.41059321
O        5.36019748      -4.68379692       3.64324850
C        6.25178626      -5.57075950       4.27180865
C        6.82263494      -6.54150721       3.44311020
C        7.76025513      -7.42853231       3.96402558
C        8.13903050      -7.30156648       5.30193018
C        7.59223924      -6.31365124       6.11622352
C        6.63185494      -5.44405373       5.60831107
O        7.99470013      -6.14843170       7.41644731
C        9.25737720      -6.63778591       7.75619214
C        9.91644714      -7.55628251       7.02815993
O       11.21185568      -7.94877438       7.34680643
C       12.08003957      -8.28258458       6.32694743
C       12.11462953      -7.57981341       5.11234851
C       12.96738338      -7.98971202       4.08478917
C       13.82648235      -9.06884689       4.28313791
C       13.84689445      -9.72951643       5.51250862
C       12.97753570      -9.33396050       6.53377269
Br      13.05138917     -10.26252290       8.18727169
C        9.18665799      -8.15395486       5.87206053
O        9.45386700      -9.23967498       5.37733258
C        9.84831692      -6.01486159       8.98106330
F        9.95028316      -6.89941412      10.00548594
F       11.09129757      -5.51560420       8.75578017
F        9.10118601      -4.97517590       9.44129081
H        0.53041597      -1.58280611       3.53474278
H        1.94254025      -3.02412747       4.95307110
H        4.64543206      -3.61640753       1.62385057
H        3.22900705      -2.18282377       0.22563929
H        6.54125062      -6.60320476       2.39309774
H        8.21367838      -8.18682995       3.33189312
H        6.21139842      -4.67076937       6.24466542
H       11.46876214      -6.72547880       4.93697632
H       12.95597636      -7.47301213       3.13063996
H       14.48602535      -9.39337601       3.48042622
H       14.53474838     -10.55644215       5.66134890
C       -0.00445707       0.01189536      -1.78238275
H       -0.66409135       0.67374010      -2.43557963
H        0.65740317      -0.63156657      -2.45157240
C       -0.90989263      -0.90692880      -0.91072765
C        0.90977584       0.90977584      -0.90977584
C       -0.00465871       1.77757030       0.00794375
H       -0.66225468       2.44313916      -0.64384735
H        0.64322798       2.43503045       0.67728295
C       -1.78241447       0.00034974      -0.00472694
H       -2.45427497      -0.65498947       0.64260836
H       -2.43311707       0.67328779      -0.65473579
C       -0.91132561       0.90220522       0.91563759
C       -0.01476271      -0.02253852       1.78660255
H       -0.67934791      -0.69751639       2.42135241
H        0.63392994       0.61504881       2.47327442
C        0.01484550      -1.77751727      -0.01636693
H        0.67870853      -2.42144646      -0.68295456
H       -0.62264859      -2.45592969       0.64226336
C        1.78714474       0.01002794       0.00389507
H        2.44202412       0.67113390       0.66197326
H        2.45385902      -0.65136977      -0.64189061
C        0.91606151      -0.90478549       0.90901405
