197
Properties=species:S:1:pos:R:3 pbc="F F F"
C        0.00000000       0.00000000       0.00000000
C        0.88154363       0.88154363      -0.88154363
C        1.35707394       2.09461544      -0.39172575
C        2.16901171       2.89633356      -1.19948889
C        2.50642593       2.49724836      -2.50199660
C        2.02056970       1.26963262      -2.97705802
C        1.20990550       0.46417881      -2.16928753
C        3.36343994       3.35638970      -3.31285310
C        3.36936585       3.37761675      -4.69591064
S        4.50634612       4.53433630      -5.25830071
C        4.90760688       4.89336517      -3.63989020
N        5.87367470       5.84225268      -3.50706908
C        6.45061240       6.28378465      -2.35666755
O        7.19477979       7.26878396      -2.44886262
C        6.23180537       5.58845630      -1.01347115
O        7.51691237       5.35216185      -0.42659432
C        7.76242277       5.90018378       0.80172417
C        7.42138925       7.23381072       1.07227115
C        7.72750641       7.80869821       2.30317814
C        8.38869585       7.05140778       3.25870445
C        8.76306928       5.73222531       2.98805138
C        8.47999785       5.12388333       1.74542259
C        8.97170301       3.68833288       1.43446409
C        7.78287769       2.74962776       1.13273309
C        9.94522015       3.70829556       0.23334561
C        9.75035298       3.02920168       2.60317387
N        4.24208264       4.25396506      -2.71800985
H        1.10806820       2.42572764       0.61304065
H        2.53751395       3.84121553      -0.80385783
H        2.27692541       0.90959128      -3.97010440
H        0.84760503      -0.48645191      -2.55206816
H        2.77649269       2.80431033      -5.39384516
H        6.18041458       6.30976799      -4.34725861
H        5.78638290       4.60190038      -1.11789226
H        5.55578387       6.19504178      -0.40011714
H        6.95304513       7.85433135       0.31234658
H        7.46504766       8.84499794       2.49410781
H        9.29953088       5.19537820       3.76469256
H        7.07843520       2.72508383       1.97230730
H        8.12787741       1.72327967       0.95819510
H        7.22127377       3.04142931       0.24229390
H       10.77383142       4.40385949       0.41206928
H        9.46415745       4.00582814      -0.70242231
H       10.37621671       2.71567076       0.05737960
H       10.64928797       3.60007600       2.86399886
H       10.08247027       2.01811991       2.33672713
H        9.12846654       2.93396550       3.50096205
C        8.71906106       7.64009926       4.53067189
C        8.99574192       8.13312838       5.59594462
Br       9.44311148       8.93031477       7.31840052
C       -0.88154363      -0.88154363      -0.88154363
C       -1.55701350      -1.96308048      -0.32332114
C       -2.36813389      -2.76441965      -1.13228063
C       -2.50576760      -2.49682270      -2.50308060
C       -1.81993574      -1.40024588      -3.04707873
C       -1.00960311      -0.59508127      -2.23868745
C       -3.36818484      -3.35014398      -3.31435392
C       -3.22278372      -3.54389988      -4.67620965
S       -4.42618011      -4.62826413      -5.24453889
C       -5.04689117      -4.73454619      -3.65942488
N       -6.13308763      -5.54583385      -3.54407499
C       -6.88525750      -5.77260800      -2.43319910
O       -7.73218560      -6.67241481      -2.50782596
C       -6.73179767      -4.94298497      -1.15895018
O       -8.03437541      -4.49341330      -0.76787982
C       -8.48183924      -4.85227684       0.47323370
C       -8.34302912      -6.17103363       0.93113393
C       -8.85389959      -6.54931335       2.17018646
C       -9.51706403      -5.60930889       2.94497375
C       -9.69054209      -4.30109532       2.48439419
C       -9.19689016      -3.88874064       1.22717220
C       -9.46695641      -2.45780601       0.69919062
C       -8.14363760      -1.70253271       0.44639796
C      -10.29553365      -2.51982028      -0.60481617
C      -10.28195412      -1.57475855       1.68033188
N       -4.41317106      -4.06261922      -2.73826726
H       -1.46487754      -2.19117709       0.73529945
H       -2.89396870      -3.60528870      -0.68332991
H       -1.91699296      -1.14134170      -4.09828643
H       -0.49059112       0.25375720      -2.67638735
H       -2.48872467      -3.13223354      -5.35368997
H       -6.40063300      -6.07798789      -4.35882030
H       -6.15730990      -4.03306269      -1.31580294
H       -6.20969102      -5.53927066      -0.40198111
H       -7.87458969      -6.93020912       0.30976891
H       -8.74639560      -7.57619619       2.50665400
H      -10.23849062      -3.61473162       3.12300570
H       -7.53951803      -1.65141122       1.35971752
H       -8.33558623      -0.67421936       0.11684360
H       -7.52750120      -2.16439300      -0.32851498
H      -11.21955127      -3.09090935      -0.45516101
H       -9.75447280      -2.98405384      -1.43388126
H      -10.57633276      -1.51536217      -0.94281295
H      -11.26879503      -2.00479926       1.88822918
H      -10.45289015      -0.57445780       1.26348490
H       -9.75683214      -1.43745668       2.63281883
C      -10.05813995      -5.99334828       4.22299980
C      -10.51129104      -6.31498127       5.29334662
Br     -11.24399802      -6.83503461       7.02400690
C       -0.88154363       0.88154363       0.88154363
C       -1.06634147       2.22201130       0.55506235
C       -1.87908992       3.02467087       1.36107338
C       -2.50702921       2.49819873       2.50044296
C       -2.31174364       1.14399324       2.81152346
C       -1.50080644       0.33794142       2.00462398
C       -3.35525251       3.36439650       3.31303374
C       -3.61130538       3.17279759       4.65879027
S       -4.63989469       4.41755520       5.24153325
C       -4.67737694       5.08928637       3.67419894
N       -5.44462131       6.20814416       3.57023100
C       -5.72574657       6.92000869       2.44530934
O       -6.31323881       7.99854097       2.60064659
C       -5.37428004       6.41196071       1.04749206
O       -6.55080247       6.50867032       0.23619575
C       -6.47944434       7.27517511      -0.89373706
C       -5.89306895       8.54916033      -0.85930046
C       -5.87593475       9.35325926      -1.99616752
C       -6.45946858       8.88660821      -3.16467762
C       -7.07600476       7.63274304      -3.20150459
C       -7.12282196       6.79858146      -2.06294483
C       -7.87860869       5.44703332      -2.10007020
C       -6.92449224       4.27117130      -1.79589118
C       -9.04091135       5.45966594      -1.08040719
C       -8.52195860       5.13009532      -3.47567314
N       -3.96082289       4.48866051       2.76457414
H       -0.58930730       2.65278158      -0.32133369
H       -2.01860518       4.07061100       1.09337113
H       -2.79822638       0.68829135       3.67010337
H       -1.36584287      -0.71046121       2.25783962
H       -3.25207449       2.39985381       5.32271988
H       -5.82437047       6.58870893       4.42436178
H       -5.11312049       5.35636776       1.03668728
H       -4.51194535       6.97152816       0.66746929
H       -5.48199462       8.94854704       0.06448824
H       -5.42629663      10.34070394      -1.95106278
H       -7.53724384       7.32965987      -4.13668718
H       -6.09042086       4.24766654      -2.50687567
H       -7.44972745       3.31104962      -1.86781509
H       -6.49749784       4.31418589      -0.79127455
H       -9.70535383       6.31445515      -1.25418736
H       -8.69953940       5.51602072      -0.04315221
H       -9.64469994       4.54783207      -1.15802414
H       -9.25885366       5.88938121      -3.76286976
H       -9.04918297       4.16825935      -3.45357927
H       -7.76826800       5.06207083      -4.26886885
C       -6.45621929       9.71488712      -4.34261798
C       -6.45349800      10.40857071      -5.32914303
Br      -6.44909791      11.53019841      -6.92427060
C        0.88154363      -0.88154363       0.88154363
C        0.89280012      -2.26027759       0.69033742
C        1.70580896      -3.06373002       1.49529519
C        2.50717993      -2.49896204       2.49952894
C        2.48521238      -1.10702162       2.67502634
C        1.67423593      -0.30050787       1.86862804
C        3.34960359      -3.36853993       3.31453923
C        3.77275299      -3.07240801       4.59773225
S        4.72965410      -4.35955839       5.20977065
C        4.52356824      -5.18552141       3.73177260
N        5.15785184      -6.38802439       3.67712023
C        5.23814849      -7.23644228       2.61647382
O        5.72783104      -8.35285647       2.83173886
C        4.78523381      -6.83545343       1.21304558
O        5.84774111      -7.14446829       0.30345913
C        5.57351377      -8.00792601      -0.72055739
C        4.86950326      -9.19824388      -0.48481832
C        4.64432264     -10.10563848      -1.51693464
C        5.13726965      -9.82723345      -2.78310393
C        5.86880509      -8.66042510      -3.02198697
C        6.12654457      -7.72646503      -1.99455101
C        7.00553773      -6.47871473      -2.25868065
C        6.21467320      -5.17878235      -1.99368319
C        8.26753253      -6.51880397      -1.36616640
C        7.51935969      -6.37585190      -3.71883080
N        3.77372467      -4.60299904       2.83733383
H        0.27969841      -2.72087957      -0.07982280
H        1.70851557      -4.14030795       1.33376379
H        3.10816776      -0.62462305       3.42383028
H        1.67465423       0.77653714       2.01510419
H        3.56975049      -2.20123929       5.20365840
H        5.59065452      -6.72085195       4.52593471
H        4.63204513      -5.76372813       1.11040227
H        3.83386424      -7.33028628       0.98679228
H        4.52640605      -9.45409019       0.51453366
H        4.10551470     -11.02692483      -1.31650174
H        6.25052979      -8.50654984      -4.02686311
H        5.31283704      -5.13365376      -2.61527907
H        6.82246346      -4.29567348      -2.22517496
H        5.90074583      -5.07240358      -0.95274024
H        8.81893459      -7.45575760      -1.50907058
H        8.04056524      -6.43192014      -0.30007747
H        8.94748476      -5.69280402      -1.60578090
H        8.13929329      -7.23791724      -3.99184541
H        8.13981987      -5.48181188      -3.85776870
H        6.69225870      -6.30398588      -4.43477459
C        4.91878226     -10.76422008      -3.85451391
C        4.73579907     -11.54894637      -4.75181976
Br       4.43993073     -12.81778243      -6.20268743
