189
Properties=species:S:1:pos:R:3 pbc="F F F"
C        0.00000000       0.00000000       0.00000000
C        0.88154363       0.88154363      -0.88154363
C        1.35707394       2.09461544      -0.39172575
C        2.16901171       2.89633356      -1.19948889
C        2.50642593       2.49724836      -2.50199660
C        2.02056970       1.26963262      -2.97705802
C        1.20990550       0.46417881      -2.16928753
C        3.36343994       3.35638970      -3.31285310
C        3.36936585       3.37761675      -4.69591064
S        4.50634612       4.53433630      -5.25830071
C        4.90760688       4.89336517      -3.63989020
N        5.87367470       5.84225268      -3.50706908
C        6.45061240       6.28378465      -2.35666755
O        7.19477979       7.26878396      -2.44886262
C        6.23180537       5.58845630      -1.01347115
O        7.51691237       5.35216185      -0.42659432
C        7.76242277       5.90018378       0.80172417
C        7.42138925       7.23381072       1.07227115
C        7.72750641       7.80869821       2.30317814
C        8.38869585       7.05140778       3.25870445
Br       8.82266937       7.82472322       4.92958315
C        8.76306928       5.73222531       2.98805138
C        8.47999785       5.12388333       1.74542259
C        8.97170301       3.68833288       1.43446409
C        7.78287769       2.74962776       1.13273309
C        9.94522015       3.70829556       0.23334561
C        9.75035298       3.02920168       2.60317387
N        4.24208264       4.25396506      -2.71800985
H        1.10806820       2.42572764       0.61304065
H        2.53751395       3.84121553      -0.80385783
H        2.27692541       0.90959128      -3.97010440
H        0.84760503      -0.48645191      -2.55206816
H        2.77649269       2.80431033      -5.39384516
H        6.18041458       6.30976799      -4.34725861
H        5.78638290       4.60190038      -1.11789226
H        5.55578387       6.19504178      -0.40011714
H        6.95304513       7.85433135       0.31234658
H        7.46504766       8.84499794       2.49410781
H        9.29953088       5.19537820       3.76469256
H        7.07843520       2.72508383       1.97230730
H        8.12787741       1.72327967       0.95819510
H        7.22127377       3.04142931       0.24229390
H       10.77383142       4.40385949       0.41206928
H        9.46415745       4.00582814      -0.70242231
H       10.37621671       2.71567076       0.05737960
H       10.64928797       3.60007600       2.86399886
H       10.08247027       2.01811991       2.33672713
H        9.12846654       2.93396550       3.50096205
C       -0.88154363      -0.88154363      -0.88154363
C       -1.53587979      -1.97876045      -0.32877489
C       -2.34709708      -2.78012882      -1.13760827
C       -2.50584704      -2.49685847      -2.50296539
C       -1.84115865      -1.38465175      -3.04144993
C       -1.03078517      -0.57946151      -2.23312516
C       -3.36771913      -3.35083407      -3.31412955
C       -3.23747656      -3.52529517      -4.68012152
S       -4.43418139      -4.61778515      -5.24701660
C       -5.03293918      -4.75230753      -3.65561553
N       -6.10710961      -5.57897724      -3.53690962
C       -6.84189804      -5.82961826      -2.41954830
O       -7.67816597      -6.73927409      -2.49498631
C       -6.68257796      -5.01441272      -1.13674214
O       -7.98562287      -4.58674817      -0.72329749
C       -8.41238570      -4.96717955       0.51868286
C       -8.25084544      -6.28976866       0.95768528
C       -8.74078326      -6.69040649       2.19816327
C       -9.40581920      -5.76902083       2.99344086
Br     -10.08832345      -6.30403694       4.67455095
C       -9.60192173      -4.45738722       2.55206574
C       -9.12986947      -4.02267076       1.29408164
C       -9.42498214      -2.58872484       0.78813517
C       -8.11479055      -1.81324010       0.52825830
C      -10.26949079      -2.64479719      -0.50588213
C      -10.23843130      -1.72888378       1.79093429
N       -4.39599042      -4.08405575      -2.73401137
H       -1.42716049      -2.21914053       0.72554584
H       -2.85630759      -3.63338815      -0.69289157
H       -1.95509579      -1.11362744      -4.08789787
H       -0.52835262       0.28153410      -2.66640276
H       -2.51755249      -3.09555857      -5.36153712
H       -6.37835232      -6.10410309      -4.35498578
H       -6.12182735      -4.09521088      -1.28913730
H       -6.14315945      -5.61351162      -0.39427173
H       -7.78082686      -7.03483112       0.32062808
H       -8.61583951      -7.72002461       2.51992632
H      -10.15028393      -3.78637265       3.20644005
H       -7.49961474      -1.76597400       1.43437701
H       -8.32409388      -0.78337174       0.21450363
H       -7.50287959      -2.25716693      -0.26036266
H      -11.18413153      -3.22964899      -0.35184110
H       -9.73331285      -3.09137637      -1.34771869
H      -10.56743459      -1.63982114      -0.82725214
H      -11.21693230      -2.17426617       2.00583335
H      -10.42749656      -0.72563751       1.38927103
H       -9.70283366      -1.59697283       2.73833651
C       -0.88154363       0.88154363       0.88154363
C       -1.11079253       2.20745320       0.52516939
C       -1.92344614       3.00993875       1.33144927
C       -2.50696424       2.49802789       2.50067876
C       -2.26726885       1.15825072       2.84174077
C       -1.45635728       0.35230400       2.03471055
C       -3.35660352       3.36325513       3.31282410
C       -3.57209641       3.20126501       4.66953184
S       -4.61816810       4.43388509       5.24692994
C       -4.71471103       5.06202875       3.66412246
N       -5.51421402       6.15721890       3.55156355
C       -5.84372583       6.83098258       2.41635619
O       -6.45573117       7.89755183       2.55914337
C       -5.51544132       6.29491676       1.02337474
O       -6.71497302       6.33895000       0.24174551
C       -6.69384968       7.07640803      -0.90937533
C       -6.14123316       8.36577191      -0.92407625
C       -6.17548770       9.13919172      -2.08165294
C       -6.77665518       8.62618159      -3.22143759
Br      -6.84214543       9.67197240      -4.79630839
C       -7.36001469       7.35606980      -3.20884127
C       -7.35456979       6.55187696      -2.04798816
C       -8.07446367       5.18049768      -2.02938954
C       -7.08144670       4.03861745      -1.72029180
C       -9.20959478       5.19010545      -0.97953013
C       -8.74485097       4.80996220      -3.37843238
N       -4.00632757       4.45613110       2.75159887
H       -0.66861652       2.62684849      -0.37470983
H       -2.09798812       4.04429370       1.04030549
H       -2.71868295       0.71321509       3.72472305
H       -1.28667682      -0.68502029       2.31156475
H       -3.17495985       2.45611728       5.34357105
H       -5.88156679       6.55053548       4.40533891
H       -5.22637196       5.24661332       1.03319026
H       -4.67870445       6.86644844       0.60578991
H       -5.71700182       8.80047182      -0.02244375
H       -5.75153008      10.13892412      -2.07451641
H       -7.83726256       7.01598610      -4.12303213
H       -6.26594290       4.01785072      -2.45258190
H       -7.58238475       3.06348888      -1.75291166
H       -6.62961056       4.11978579      -0.72898717
H       -9.90109710       6.02222742      -1.15770290
H       -8.84282501       5.28324055       0.04634234
H       -9.79047800       4.26102128      -1.01699141
H       -9.50915651       5.54170258      -3.66549397
H       -9.24526950       3.83559587      -3.31700233
H       -8.01062668       4.74039288      -4.18954958
C        0.88154363      -0.88154363       0.88154363
C        1.41443156      -2.06063461       0.36834896
C        2.22615705      -2.86222108       1.17645604
C        2.50625788      -2.49710677       2.50230625
C        1.96304627      -1.30332458       3.00088949
C        1.15246491      -0.49796416       2.19294278
C        3.36487682      -3.35466114       3.31314479
C        3.32562307      -3.42314647       4.69412371
S        4.48235076      -4.56011832       5.25651406
C        4.94919158      -4.84986180       3.64180886
N        5.95114010      -5.76104501       3.51081136
C        6.58075723      -6.14343338       2.36687400
O        7.35483014      -7.10577634       2.45181989
C        6.38290843      -5.41004925       1.04077514
O        7.67791536      -5.11122658       0.50652659
C        7.98272489      -5.60830820      -0.73015071
C        7.69684166      -6.94244470      -1.05635755
C        8.06319700      -7.46426092      -2.29443144
C        8.72934762      -6.65308801      -3.20103646
Br       9.24482734      -7.35375865      -4.88077654
C        9.04902508      -5.33227664      -2.87405851
C        8.70415170      -4.77668163      -1.62237474
C        9.13569456      -3.33712460      -1.24724735
C        7.90598632      -2.44930369      -0.95551765
C       10.06892325      -3.36598830      -0.01474144
C        9.92961669      -2.61278222      -2.36601812
N        4.29307223      -4.20163141       2.71935390
H        1.21042331      -2.36514050      -0.65480863
H        2.63980633      -3.78021358       0.76256740
H        2.17379196      -0.96927627       4.01355287
H        0.74523944       0.42641750       2.59439933
H        2.69058165      -2.89413003       5.38993650
H        6.24569486      -6.24668980       4.34505653
H        5.90066084      -4.44298621       1.16252849
H        5.74883787      -6.01732307       0.38478185
H        7.22511293      -7.60388873      -0.33397177
H        7.84294956      -8.50153478      -2.52854654
H        9.59222083      -4.75157611      -3.61358041
H        7.22936897      -2.41934529      -1.81750254
H        8.20956623      -1.41866800      -0.73527226
H        7.32548794      -2.78997919      -0.09505795
H       10.92639905      -4.02712305      -0.18790047
H        9.56756657      -3.71127135       0.89356998
H       10.45951221      -2.36623235       0.20876331
H       10.85578034      -3.14421718      -2.61463240
H       10.21780263      -1.60097813      -2.05491771
H        9.33496646      -2.50747386      -3.28097033
