138
Properties=species:S:1:pos:R:3 pbc="F F F"
C        1.79193651       1.79193651      -1.79193651
C        3.00956415       1.30044917      -2.26410248
C        3.81512087       2.10811541      -3.06829821
C        3.39806905       3.40219823      -3.38281196
C        2.16936055       3.88681448      -2.93406352
C        1.36802691       3.07936078      -2.12431772
O        4.24085937       4.13544641      -4.23770373
C        4.48550942       5.47370047      -3.97266204
O        4.00783538       6.14299374      -3.06640389
C        5.36605975       6.03597404      -5.01641905
C        5.10322658       7.29761656      -5.39546546
C        5.90765623       7.93786488      -6.42238167
C        5.66917810       9.24747313      -6.84487188
C        6.47864528       9.81123110      -7.83508050
Br       6.15530720      11.58452706      -8.40633990
C        7.52283023       9.08162444      -8.40761753
C        7.76084940       7.77251447      -7.98980445
C        6.94793857       7.21878832      -7.00352473
O        7.21652447       5.89688565      -6.60411423
C        6.48013768       5.26528708      -5.60237759
O        6.77620420       4.13769286      -5.22559910
H        3.33688562       0.29466397      -2.01453722
H        4.76213374       1.73148316      -3.44633756
H        1.82568281       4.88231718      -3.19842909
H        0.41761598       3.46165481      -1.76103251
H        4.28967747       7.86810749      -4.95429362
H        4.86101544       9.82961175      -6.40837224
H        8.15303827       9.52372948      -9.17537219
H        8.57065941       7.19444321      -8.42614969
C       -1.79193651      -1.79193651      -1.79193651
C       -3.09970489      -1.39744931      -2.07696160
C       -3.90488871      -2.20523025      -2.88141553
C       -3.39589472      -3.40371693      -3.38346759
C       -2.08056979      -3.78773744      -3.12193132
C       -1.27890023      -2.98122126      -2.31158391
O       -4.25133064      -4.13702828      -4.22565059
C       -4.32513049      -5.51461645      -4.09212499
O       -3.68042513      -6.21427183      -3.32253605
C       -5.25710959      -6.06391438      -5.09742887
C       -4.91123016      -7.24140454      -5.64367390
C       -5.75805165      -7.86074674      -6.64910439
C       -5.43629027      -9.08395922      -7.24127363
C       -6.29173972      -9.63207379      -8.20114336
Br      -5.85554159     -11.28841997      -9.00221260
C       -7.46411840      -8.97209920      -8.57585459
C       -7.78591155      -7.74884575      -7.98841102
C       -6.92647921      -7.20984456      -7.03392785
O       -7.28189989      -5.97556578      -6.46005867
C       -6.50430867      -5.36998693      -5.47350675
O       -6.86950905      -4.32852465      -4.94146246
H       -3.49786038      -0.46685419      -1.68137225
H       -4.92267088      -1.90286197      -3.11442161
H       -1.66900746      -4.70477567      -3.53264595
H       -0.25887097      -3.28727776      -2.09415457
H       -3.99815556      -7.75711507      -5.35680794
H       -4.52787673      -9.61131615      -6.95980655
H       -8.12943415      -9.40231272      -9.32039307
H       -8.69551708      -7.22571248      -8.27002275
C       -1.79193651       1.79193651       1.79193651
C       -1.29091230       2.99672869       2.28647481
C       -2.09730312       3.80056885       3.09366251
C       -3.39259566       3.38514515       3.40533843
C       -3.90520303       2.19410930       2.89092622
C       -3.09447462       1.38836830       2.08886249
O       -4.15902205       4.27258931       4.18239815
C       -4.94660686       3.77610561       5.20915946
O       -5.09816245       2.60161972       5.51745085
C       -5.67753446       4.88364374       5.85727464
C       -6.93467778       4.61475520       6.24687563
C       -7.73996428       5.64130614       6.88663235
C       -9.05016544       5.40362599       7.30773169
C       -9.77501643       6.42990475       7.92003569
Br     -11.54878932       6.10720855       8.49017629
C       -9.20593907       7.69014259       8.11599055
C       -7.89890416       7.93095453       7.69330964
C       -7.18500377       6.90246868       7.08277918
O       -5.86874192       7.17864642       6.67013601
C       -5.06220467       6.20681349       6.07878419
O       -3.89738606       6.45278051       5.78932958
H       -0.28026830       3.31751080       2.04830771
H       -1.71800147       4.74398902       3.47796397
H       -4.92168469       1.87866667       3.10607772
H       -3.48750177       0.45240285       1.70039867
H       -7.38237448       3.63594001       6.09376409
H       -9.50760069       4.42762778       7.16377096
H       -9.77090625       8.48570809       8.59552560
H       -7.44393744       8.90644827       7.84086660
C        1.79193651      -1.79193651       1.79193651
C        1.31983671      -3.03279405       2.22148503
C        2.12609914      -3.83666874       3.02876661
C        3.39183258      -3.38564906       3.40559761
C        3.87677160      -2.15732731       2.95613964
C        3.06591339      -1.35191443       2.15387758
O        4.16254621      -4.27332999       4.17813331
C        4.89152659      -3.78795653       5.25238882
O        4.98592481      -2.62145100       5.60985720
C        5.64011434      -4.89174601       5.88659249
C        6.87052138      -4.59148691       6.33430031
C        7.69053787      -5.61131235       6.96605257
C        8.97396039      -5.34145883       7.44610390
C        9.71466975      -6.36294678       8.04734035
Br      11.45215180      -5.99669696       8.69732540
C        9.18788491      -7.65015010       8.17403719
C        7.90780419      -7.92295171       7.69241242
C        7.17787813      -6.89892052       7.09345297
O        5.88957847      -7.20776910       6.62017677
C        5.06862727      -6.24450255       6.03467254
O        3.92579349      -6.52230923       5.69139344
H        0.33193951      -3.38154867       1.93259864
H        1.76953802      -4.80773056       3.36268588
H        4.87156215      -1.81279627       3.22207065
H        3.43662376      -0.38762412       1.81605541
H        7.28539573      -3.59148011       6.23520274
H        9.39832732      -4.34425626       7.35641584
H        9.76495916      -8.44207641       8.64510438
H        7.48574872      -8.91969775       7.78580584
C       -0.00445707       0.01189536      -1.78238275
H       -0.66409135       0.67374010      -2.43557963
H        0.65740317      -0.63156657      -2.45157240
C       -0.90989263      -0.90692880      -0.91072765
C        0.90977584       0.90977584      -0.90977584
C       -0.00465871       1.77757030       0.00794375
H       -0.66225468       2.44313916      -0.64384735
H        0.64322798       2.43503045       0.67728295
C       -1.78241447       0.00034974      -0.00472694
H       -2.45427497      -0.65498947       0.64260836
H       -2.43311707       0.67328779      -0.65473579
C       -0.91132561       0.90220522       0.91563759
C       -0.01476271      -0.02253852       1.78660255
H       -0.67934791      -0.69751639       2.42135241
H        0.63392994       0.61504881       2.47327442
C        0.01484550      -1.77751727      -0.01636693
H        0.67870853      -2.42144646      -0.68295456
H       -0.62264859      -2.45592969       0.64226336
C        1.78714474       0.01002794       0.00389507
H        2.44202412       0.67113390       0.66197326
H        2.45385902      -0.65136977      -0.64189061
C        0.91606151      -0.90478549       0.90901405
