169
Properties=species:S:1:pos:R:3 pbc="F F F"
C        0.00000000       0.00000000       0.00000000
C        0.88257178       0.88257178      -0.88257178
C        1.16279657       2.18989074      -0.48425784
C        1.97534269       2.99597795      -1.27988397
C        2.50520100       2.49022828      -2.46835566
C        2.21917882       1.17722638      -2.87260164
C        1.40263810       0.36909678      -2.07182344
C        2.82794862       0.69536341      -4.14074299
O        3.75501884       1.27085298      -4.68839801
O        2.17160055      -0.44329094      -4.58202817
C        2.58607628      -1.00973938      -5.80182220
C        2.73531011      -2.39766576      -5.82954899
C        3.11848469      -3.02406857      -7.01748999
C        3.33788749      -2.25613798      -8.16821484
C        3.15254318      -0.87539321      -8.13983474
O        3.32967497      -0.08078466      -9.24460141
C        3.74210178      -0.68528841     -10.40897606
C        4.01099119      -1.98962074     -10.58351101
O        4.40590361      -2.59484546     -11.76483826
C        5.12541540      -1.90604498     -12.71343043
C        6.22243939      -1.10434571     -12.37591300
C        6.96366818      -0.47134102     -13.37695140
C        6.63385623      -0.66046189     -14.71845125
C        5.56265358      -1.48478595     -15.06343318
C        4.81243254      -2.10923016     -14.06326370
C        3.77155339      -2.89219861      -9.42450484
O        3.93219467      -4.10584619      -9.49242963
C        2.76471275      -0.24584845      -6.95711271
H        0.75745307       2.58749128       0.44340007
H        2.20029081       4.01519286      -0.97408421
H        3.14419492       3.12646172      -3.07988012
H        1.17879043      -0.65499163      -2.35785770
H        2.56278972      -2.98992023      -4.93542771
H        3.24786896      -4.10444681      -7.04614446
H        3.82414813       0.05923178     -11.19000099
H        6.52194833      -0.97710631     -11.33915839
H        7.81018145       0.15754588     -13.11048527
H        7.22036438      -0.17804191     -15.49697040
H        5.32611676      -1.64214744     -16.11292847
H        2.61923483       0.83047403      -6.94353542
C        3.72145993      -2.95980986     -14.46312987
C        2.80777038      -3.67217035     -14.79801779
Br       1.33041164      -4.82399703     -15.33950322
C       -0.88257178      -0.88257178      -0.88257178
C       -2.01579164      -0.33589990      -1.48525361
C       -2.81867045      -1.13320743      -2.29932674
C       -2.48327364      -2.47216939      -2.50834191
C       -1.34674913      -3.02433976      -1.89791795
C       -0.54152388      -2.22159351      -1.08044092
C       -1.03733679      -4.45217678      -2.17454144
O       -1.54818411      -5.07222374      -3.09386198
O       -0.13865781      -4.93560958      -1.23607040
C        0.22957264      -6.29153650      -1.31619525
C        1.58787682      -6.58146320      -1.17360696
C        2.01516153      -7.91036406      -1.21670357
C        1.07744954      -8.93615634      -1.39125755
C       -0.27985272      -8.63947004      -1.49766196
O       -1.24105811      -9.60786599      -1.64456762
C       -0.82520436     -10.91630009      -1.72428498
C        0.44271697     -11.35812624      -1.68947219
O        0.85288442     -12.67947774      -1.74930310
C        0.11647110     -13.62513029      -2.42414165
C       -0.40429457     -13.38783912      -3.70187300
C       -1.09389163     -14.39785761      -4.37752933
C       -1.23925674     -15.65671186      -3.79587698
C       -0.69384928     -15.91024439      -2.53720715
C       -0.01419551     -14.89780143      -1.85446914
C        1.50864023     -10.34286731      -1.46963254
O        2.69257157     -10.64464811      -1.36670157
C       -0.71200956      -7.31413098      -1.44983647
H       -2.27894167       0.70802635      -1.33062896
H       -3.70202847      -0.71289312      -2.77464628
H       -3.11402534      -3.08512739      -3.15138403
H        0.35073464      -2.62388173      -0.60850941
H        2.31186647      -5.78325671      -1.03690697
H        3.07326309      -8.14555308      -1.11727661
H       -1.68829004     -11.56148204      -1.82360882
H       -0.26621432     -12.42719260      -4.19059348
H       -1.50441183     -14.20722197      -5.36657879
H       -1.76435259     -16.44591220      -4.32902808
H       -0.79489366     -16.90102556      -2.10097857
H       -1.77196115      -7.09089827      -1.53038486
C        0.54207566     -15.20466917      -0.56218644
C        1.00795277     -15.46167090       0.52010032
Br       1.76123664     -15.87722095       2.27006647
C       -0.88257178       0.88257178       0.88257178
C       -1.20194571       0.46136350       2.17363594
C       -1.99788237       1.26670281       2.98661943
C       -2.46853417       2.48979835       2.50545242
C       -2.15248455       2.91160432       1.20491797
C       -1.35272983       2.10100969       0.38981879
C       -2.67246081       4.23167196       0.75992224
O       -3.11371123       5.06343345       1.53712515
O       -2.59937306       4.33186764      -0.62090291
C       -3.09793190       5.50249003      -1.22226283
C       -2.31042816       6.07801913      -2.22125395
C       -2.76154777       7.22622601      -2.87586767
C       -4.00101740       7.78041775      -2.53147081
C       -4.79565817       7.17894429      -1.55761774
O       -6.02781693       7.66673323      -1.20105844
C       -6.46336353       8.81758747      -1.81516157
C       -5.79671184       9.53922504      -2.73105543
O       -6.25057240      10.68607954      -3.36075552
C       -7.13016852      11.54105470      -2.73842237
C       -6.95731899      11.94615684      -1.40946915
C       -7.83986131      12.86455536      -0.83513811
C       -8.87799418      13.40608374      -1.59223233
C       -9.03592238      13.03227233      -2.92689390
C       -8.16162880      12.10466024      -3.49982295
C       -4.48343779       9.00819623      -3.18777439
O       -3.81888692       9.55869178      -4.05880059
C       -4.35178517       6.02899584      -0.90480400
H       -0.83349579      -0.48786970       2.55591819
H       -2.24845254       0.94591932       3.99519601
H       -3.08479901       3.11461473       3.15112302
H       -1.08386900       2.41336757      -0.61558006
H       -1.35043746       5.64440896      -2.48654921
H       -2.14976825       7.68831161      -3.64851326
H       -7.44851360       9.07047910      -1.44561180
H       -6.13033369      11.56817387      -0.81450715
H       -7.70745729      13.17055816       0.20019715
H       -9.55572116      14.13125829      -1.14768658
H       -9.83603699      13.47553588      -3.51467508
H       -4.97814601       5.56404875      -0.14895047
C       -8.35388802      11.75409492      -4.88320300
C       -8.51490512      11.46049647      -6.04178379
Br      -8.77525616      10.98577261      -7.91511093
C        0.88257178      -0.88257178       0.88257178
C        0.30651227      -1.93298868       1.59744420
C        1.10792873      -2.74744486       2.39583102
C        2.48125412      -2.50887090       2.47365991
C        3.06062239      -1.44897954       1.75940491
C        2.25368685      -0.63195051       0.95792095
C        4.53098961      -1.25940088       1.87366452
O        5.27438842      -2.11780601       2.32207540
O        4.88394014       0.00692671       1.43332435
C        6.23880295       0.37815538       1.51751153
C        6.78330265       1.01917128       0.40306196
C        8.11556747       1.43697769       0.43331633
C        8.88605351       1.21861992       1.58253075
C        8.32385960       0.60941546       2.70254058
O        9.02722288       0.39496967       3.86123851
C       10.34991379       0.77065323       3.88652888
C       11.04672818       1.32011629       2.87826957
O       12.37341739       1.71524415       2.91772317
C       13.28127760       1.08531503       3.73683828
C       13.35426934      -0.30970790       3.83002945
C       14.33250627      -0.90975681       4.62701548
C       15.26056977      -0.12308151       5.30819431
C       15.21453334       1.26639545       5.19316292
C       14.22939555       1.86911382       4.40618436
C       10.30190178       1.62406525       1.62602310
O       10.82833415       2.17501533       0.66545929
C        6.99215039       0.19520724       2.67903386
H       -0.76189613      -2.12715745       1.53628296
H        0.66600429      -3.56991387       2.95364970
H        3.09971661      -3.15513212       3.09568804
H        2.68235178       0.18598866       0.38529338
H        6.18211485       1.18803845      -0.48577920
H        8.55205335       1.92790250      -0.43458425
H       10.76562011       0.55414117       4.86190195
H       12.66712541      -0.94225219       3.27462281
H       14.38086548      -1.99367209       4.70367503
H       16.02992139      -0.59225133       5.91712015
H       15.95517011       1.87016127       5.71188894
H        6.56003015      -0.27618006       3.55703407
C       14.22384648       3.30565474       4.30658821
C       14.21919914       4.50875777       4.22317643
Br      14.21168478       6.45407359       4.08830665
