161
Properties=species:S:1:pos:R:3 pbc="F F F"
C        0.00000000       0.00000000       0.00000000
C        0.88257178       0.88257178      -0.88257178
C        1.16279657       2.18989074      -0.48425784
C        1.97534269       2.99597795      -1.27988397
C        2.50520100       2.49022828      -2.46835566
C        2.21917882       1.17722638      -2.87260164
C        1.40263810       0.36909678      -2.07182344
C        2.82794862       0.69536341      -4.14074299
O        3.75501884       1.27085298      -4.68839801
O        2.17160055      -0.44329094      -4.58202817
C        2.58607628      -1.00973938      -5.80182220
C        2.73531011      -2.39766576      -5.82954899
C        3.11848469      -3.02406857      -7.01748999
C        3.33788749      -2.25613798      -8.16821484
C        3.15254318      -0.87539321      -8.13983474
O        3.32967497      -0.08078466      -9.24460141
C        3.74210178      -0.68528841     -10.40897606
C        4.01099119      -1.98962074     -10.58351101
O        4.40590361      -2.59484546     -11.76483826
C        5.12541540      -1.90604498     -12.71343043
C        6.22243939      -1.10434571     -12.37591300
C        6.96366818      -0.47134102     -13.37695140
C        6.63385623      -0.66046189     -14.71845125
C        5.56265358      -1.48478595     -15.06343318
C        4.81243254      -2.10923016     -14.06326370
Br       3.37448758      -3.23032778     -14.59030310
C        3.77155339      -2.89219861      -9.42450484
O        3.93219467      -4.10584619      -9.49242963
C        2.76471275      -0.24584845      -6.95711271
H        0.75745307       2.58749128       0.44340007
H        2.20029081       4.01519286      -0.97408421
H        3.14419492       3.12646172      -3.07988012
H        1.17879043      -0.65499163      -2.35785770
H        2.56278972      -2.98992023      -4.93542771
H        3.24786896      -4.10444681      -7.04614446
H        3.82414813       0.05923178     -11.19000099
H        6.52194833      -0.97710631     -11.33915839
H        7.81018145       0.15754588     -13.11048527
H        7.22036438      -0.17804191     -15.49697040
H        5.32611676      -1.64214744     -16.11292847
H        2.61923483       0.83047403      -6.94353542
C       -0.88257178      -0.88257178      -0.88257178
C       -1.96671905      -0.31649915      -1.55372695
C       -2.76891401      -1.11428531      -2.36800529
C       -2.48179977      -2.47323891      -2.50874626
C       -1.39489534      -3.04460916      -1.82950234
C       -0.59026687      -2.24134517      -1.01194628
C       -1.13472730      -4.49407630      -2.03525142
O       -1.63372013      -5.13106045      -2.94948925
O       -0.29558185      -4.97350676      -1.04124917
C        0.01841458      -6.34531487      -1.05125881
C        1.35653602      -6.68341583      -0.84031353
C        1.72913026      -8.02906704      -0.81196933
C        0.75702661      -9.02272188      -0.98426907
C       -0.58126683      -8.67639637      -1.15932152
O       -1.57553058      -9.61064785      -1.30731329
C       -1.21201696     -10.93694203      -1.31683044
C        0.03384276     -11.42756757      -1.21115664
O        0.39033827     -12.76569502      -1.20053965
C       -0.35732254     -13.70841319      -1.86706511
C       -0.81586280     -13.50413149      -3.17401239
C       -1.51945150     -14.51302444      -3.83680263
C       -1.74073565     -15.73952420      -3.21158574
C       -1.25750919     -15.96181008      -1.92198155
C       -0.56403025     -14.94979993      -1.25263591
Br       0.08244710     -15.31167966       0.49476965
C        1.13167789     -10.44768764      -0.98784987
O        2.29681943     -10.79227043      -0.82332711
C       -0.95906451      -7.33390673      -1.18300577
H       -2.19188734       0.74273093      -1.45238788
H       -3.61404131      -0.67906953      -2.89645703
H       -3.11131122      -3.08674213      -3.15248341
H        0.26463778      -2.65906538      -0.48722890
H        2.10726155      -5.90995162      -0.70560713
H        2.77158679      -8.30225563      -0.65889776
H       -2.09669290     -11.55047806      -1.42620993
H       -0.61808933     -12.57114739      -3.69476369
H       -1.88150098     -14.34765389      -4.84905773
H       -2.27657770     -16.52861611      -3.73409907
H       -1.41746088     -16.92856804      -1.45086887
H       -2.00462853      -7.07178852      -1.31682724
C       -0.88257178       0.88257178       0.88257178
C       -1.38020234       0.37412558       2.08261723
C       -2.17707174       1.17769314       2.89643973
C       -2.47046589       2.48595158       2.50736747
C       -1.97503521       2.99627861       1.29769302
C       -1.17467377       2.18730440       0.48158015
C       -2.31165418       4.40228468       0.95011615
O       -2.75117793       5.19691840       1.76617351
O       -2.07934979       4.62876008      -0.39777207
C       -2.39241941       5.89992387      -0.91418418
C       -1.44834804       6.48149139      -1.76264609
C       -1.71089390       7.73053984      -2.32952764
C       -2.92016188       8.37982406      -2.05002159
C       -3.87110155       7.77583127      -1.22994809
O       -5.08096716       8.35744113      -0.94491656
C       -5.33225452       9.60344494      -1.46991003
C       -4.50245389      10.33454844      -2.23212089
O       -4.77055343      11.58011590      -2.77477291
C       -5.62458091      12.46056582      -2.15234588
C       -5.55844120      12.71227768      -0.77671219
C       -6.40394725      13.66049185      -0.19516054
C       -7.29548463      14.38328706      -0.98692610
C       -7.34317669      14.16146526      -2.36334113
C       -6.50688584      13.20489656      -2.94531632
Br      -6.60452147      12.95404971      -4.82410828
C       -3.20569017       9.71115682      -2.61298737
O       -2.39961816      10.26879408      -3.34963414
C       -3.61569910       6.52602457      -0.66574666
H       -1.15031762      -0.64241530       2.39364196
H       -2.56607427       0.78878757       3.83470604
H       -3.08909108       3.10779432       3.15365135
H       -0.76874890       2.56557435      -0.45266675
H       -0.51233543       5.97413593      -1.97817417
H       -0.97638847       8.19681896      -2.98364083
H       -6.32220350       9.92454938      -1.17337199
H       -4.84211611      12.19011886      -0.14823456
H       -6.35559271      13.84734310       0.87527679
H       -7.94320014      15.13080010      -0.53470738
H       -8.02730470      14.74457505      -2.97498196
H       -4.36308276       6.06014621      -0.02998469
C        0.88257178      -0.88257178       0.88257178
C        0.38158712      -2.09296294       1.36239509
C        1.18533141      -2.90671422       2.15915898
C        2.48633616      -2.50720305       2.47024572
C        2.98907787      -1.28718748       1.99274149
C        2.17993971      -0.47116554       1.19245306
C        4.38780624      -0.92860710       2.34764167
O        5.18634276      -1.74094506       2.78698200
O        4.60255465       0.42391261       2.13169575
C        5.86493205       0.95015960       2.46338665
C        6.44733491       1.81443587       1.53429430
C        7.68759445       2.39144658       1.81575824
C        8.32720723       2.10603888       3.02879600
C        7.72201324       1.26984375       3.96481524
O        8.29401064       0.97820387       5.17768496
C        9.53178096       1.51341736       5.44742583
C       10.26342268       2.29180484       4.63326361
O       11.50039769       2.84449447       4.91999319
C       12.37842050       2.22231603       5.77669638
C       12.64518947       0.85013129       5.69894851
C       13.59062960       0.26961497       6.54826393
C       14.29582335       1.05944999       7.45547223
C       14.05912411       2.43291872       7.51509542
C       13.10523048       3.01367553       6.67491114
Br      12.83373340       4.88864326       6.78937276
C        9.64954508       2.67974606       3.33406061
O       10.20776115       3.43052693       2.54154389
C        6.48089347       0.69543024       3.69051377
H       -0.62920655      -2.41207793       1.11867290
H        0.80225955      -3.85297925       2.53432907
H        3.10846807      -3.15345061       3.08861808
H        2.55259449       0.47114749       0.80020950
H        5.94747455       2.03448251       0.59530516
H        8.15458485       3.05800734       1.09298909
H        9.84569974       1.20987560       6.43755676
H       12.13708616       0.22381085       4.97072510
H       13.78916616      -0.79826456       6.49078188
H       15.04127923       0.60824387       8.10625751
H       14.62868156       3.04337259       8.21158882
H        6.01397830       0.04708806       4.42635404
