182
Properties=species:S:1:pos:R:3 pbc="F F F"
C        1.79247580       1.79247580      -1.79247580
C        2.07270059       3.09979477      -1.39416186
C        2.88524671       3.90588198      -2.18978800
C        3.41510502       3.40013231      -3.37825968
C        3.12908285       2.08713041      -3.78250566
C        2.31254212       1.27900081      -2.98172746
C        3.73785264       1.60526743      -5.05064702
O        4.66492286       2.18075701      -5.59830203
O        3.08150457       0.46661309      -5.49193220
C        3.49598030      -0.09983536      -6.71172623
C        3.64521413      -1.48776174      -6.73945302
C        4.02838871      -2.11416454      -7.92739401
C        4.24779151      -1.34623396      -9.07811886
C        4.06244721       0.03451082      -9.04973877
O        4.23957900       0.82911937     -10.15450544
C        4.65200581       0.22461561     -11.31888008
C        4.92089521      -1.07971672     -11.49341503
O        5.31580764      -1.68494144     -12.67474228
C        6.03531942      -0.99614095     -13.62333445
C        7.13234342      -0.19444168     -13.28581703
C        7.87357221       0.43856300     -14.28685542
C        7.54376025       0.24944213     -15.62835528
C        6.47255761      -0.57488192     -15.97333720
C        5.72233656      -1.19932613     -14.97316773
Br       4.28439160      -2.32042375     -15.50020712
C        4.68145741      -1.98229458     -10.33440887
O        4.84209870      -3.19594217     -10.40233365
C        3.67461678       0.66405557      -7.86701674
H        1.66735709       3.49739530      -0.46650396
H        3.11019483       4.92509688      -1.88398823
H        4.05409894       4.03636575      -3.98978414
H        2.08869446       0.25491240      -3.26776172
H        3.47269375      -2.08001621      -5.84533173
H        4.15777298      -3.19454279      -7.95604848
H        4.73405215       0.96913581     -12.09990501
H        7.43185235      -0.06720229     -12.24906242
H        8.72008548       1.06744990     -14.02038929
H        8.13026841       0.73186212     -16.40687442
H        6.23602078      -0.73224341     -17.02283250
H        3.52913885       1.74037806      -7.85343945
C       -1.79247580      -1.79247580      -1.79247580
C       -1.63564571      -1.75285982      -3.17815170
C       -2.43055177      -2.56296343      -3.98740149
C       -3.37650082      -3.40994276      -3.40705342
C       -3.53884496      -3.44620733      -2.01366663
C       -2.73924084      -2.63152898      -1.20250056
C       -4.55286806      -4.38175080      -1.45914823
O       -5.04091493      -5.28971932      -2.11334766
O       -4.85139722      -4.03935293      -0.14929971
C       -5.83463495      -4.79235487       0.51911864
C       -5.54380652      -5.18124781       1.82814892
C       -6.48918867      -5.90777604       2.55534653
C       -7.72012257      -6.22832110       1.96876725
C       -8.01504267      -5.80578031       0.67412618
O       -9.21465148      -6.07138369       0.06283137
C      -10.13691217      -6.81732950       0.75874017
C       -9.98428788      -7.33780749       1.98750185
O      -10.92573241      -8.07058709       2.69071102
C      -11.85923496      -8.84355361       2.04027565
C      -11.51370109      -9.68996655       0.97994888
C      -12.48219735     -10.50448288       0.38768960
C      -13.79028384     -10.50173323       0.87045941
C      -14.13378993      -9.68564102       1.94841806
C      -13.16948078      -8.86117708       2.53447971
Br     -13.68906955      -7.78163717       4.00653174
C       -8.72053644      -7.01947197       2.70643670
O       -8.50305898      -7.39772486       3.85229366
C       -7.07614654      -5.07532673      -0.05421582
H       -0.89646404      -1.09918825      -3.63560407
H       -2.31172199      -2.53930770      -5.06825026
H       -3.98848026      -4.04363844      -4.04813013
H       -2.83783570      -2.65292949      -0.12060338
H       -4.58864657      -4.92945136       2.28008866
H       -6.26732886      -6.22470215       3.57275234
H      -11.03085598      -6.93201717       0.15978017
H      -10.49109420      -9.73829359       0.61567531
H      -12.21192906     -11.15457729      -0.44141832
H      -14.53968550     -11.14656306       0.41724362
H      -15.15146081      -9.70578794       2.33063888
H       -7.31443929      -4.74678269      -1.06173437
C       -1.79247580       1.79247580       1.79247580
C       -2.41469626       1.23981223       2.91214874
C       -3.21238239       2.04214498       3.72638932
C       -3.38208365       3.39316290       3.41825046
C       -2.76118535       3.94854532       2.28898824
C       -1.96023398       3.14073133       1.47230508
C       -2.97012505       5.39713817       2.02650386
O       -3.41320057       6.16322989       2.86755144
O       -2.62047824       5.70000281       0.71956881
C       -2.80267929       7.02462715       0.28056474
C       -1.75802267       7.59118110      -0.45229836
C       -1.88769563       8.89353256      -0.93961001
C       -3.06579023       9.61158020      -0.69769402
C       -4.11670281       9.02525210       0.00474188
O       -5.30059691       9.67564636       0.24696052
C       -5.42247563      10.97115130      -0.19812543
C       -4.48746395      11.68903142      -0.84190184
O       -4.62475074      12.98663039      -1.30577264
C       -5.45928310      13.88331142      -0.68008160
C       -5.48040451      14.03137083       0.71194343
C       -6.29855962      14.99769080       1.30274022
C       -7.07391113      15.84040779       0.50723874
C       -7.03226920      15.72072792      -0.88198423
C       -6.22383786      14.74682994      -1.47448964
Br      -6.19568554      14.63760110      -3.36911166
C       -3.21280184      10.99724315      -1.17647329
O       -2.31560007      11.54259413      -1.80970402
C       -3.99398425       7.72287967       0.48882517
H       -2.28159633       0.18928523       3.16037479
H       -3.69818708       1.61861531       4.60247755
H       -4.00258647       4.01303278       4.06462959
H       -1.45865636       3.55211079       0.60060142
H       -0.84654011       7.03056855      -0.63909939
H       -1.07441384       9.34763149      -1.50276666
H       -6.40693629      11.34489820       0.05125848
H       -4.85270461      13.41308452       1.34792336
H       -6.31872715      15.10417140       2.38502613
H       -7.69969178      16.60120246       0.96811071
H       -7.62491844      16.39599459      -1.49430316
H       -4.81864955       7.27145691       1.03284990
C        1.79247580      -1.79247580       1.79247580
C        1.84882723      -3.16556876       1.55226123
C        2.65977120      -3.97387192       2.34727356
C        3.41172881      -3.40497411       3.37679409
C        3.35123216      -2.02474039       3.62274637
C        2.53588684      -1.21450344       2.82288011
C        4.18903822      -1.48062312       4.72410575
O        5.10584154      -2.10951539       5.22862496
O        3.74848811      -0.21439840       5.07716335
C        4.39911814       0.43438794       6.14314097
C        4.72187064       1.77963454       5.95466931
C        5.34467735       2.48779229       6.98473312
C        5.62831131       1.84529908       8.19666419
C        5.27089520       0.51215417       8.38795577
O        5.50317690      -0.15623666       9.56379024
C        6.14864467       0.52333456      10.57019140
C        6.59938592       1.78770961      10.52291722
O        7.23015166       2.47258111      11.54803793
C        7.98601991       1.81166096      12.48815396
C        8.91589610       0.82661466      12.13443733
C        9.70746728       0.22391247      13.11543582
C        9.59763242       0.62299014      14.44691538
C        8.69698245       1.62751307      14.80154350
C        7.89564145       2.22319383      13.82373054
Br       6.69753162       3.59385951      14.36050286
C        6.31161159       2.56425105       9.28621116
O        6.62964736       3.74171642       9.16055924
C        4.64386773      -0.19777992       7.36404143
H        1.26962456      -3.61357844       0.74805334
H        2.71073899      -5.04469847       2.16384248
H        4.04716283      -4.04466642       3.98841959
H        2.48379658      -0.14150037       2.98607162
H        4.49892868       2.27479310       5.01387369
H        5.60989789       3.53394778       6.84332857
H        6.24777165      -0.12253912      11.43278220
H        9.04694660       0.53043518      11.09720106
H       10.42287282      -0.54701652      12.83803533
H       10.22433769       0.16253225      15.20719951
H        8.63332198       1.94590882      15.83919671
H        4.36548783      -1.23579484       7.52167369
C       -0.00445707       0.01189536      -1.78238275
H       -0.66409135       0.67374010      -2.43557963
H        0.65740317      -0.63156657      -2.45157240
C       -0.90989263      -0.90692880      -0.91072765
C        0.90977584       0.90977584      -0.90977584
C       -0.00465871       1.77757030       0.00794375
H       -0.66225468       2.44313916      -0.64384735
H        0.64322798       2.43503045       0.67728295
C       -1.78241447       0.00034974      -0.00472694
H       -2.45427497      -0.65498947       0.64260836
H       -2.43311707       0.67328779      -0.65473579
C       -0.91132561       0.90220522       0.91563759
C       -0.01476271      -0.02253852       1.78660255
H       -0.67934791      -0.69751639       2.42135241
H        0.63392994       0.61504881       2.47327442
C        0.01484550      -1.77751727      -0.01636693
H        0.67870853      -2.42144646      -0.68295456
H       -0.62264859      -2.45592969       0.64226336
C        1.78714474       0.01002794       0.00389507
H        2.44202412       0.67113390       0.66197326
H        2.45385902      -0.65136977      -0.64189061
C        0.91606151      -0.90478549       0.90901405
