49
Properties=species:S:1:pos:R:3 pbc="F F F"
C        0.00000000       0.00000000       0.00000000
C        0.87823716       0.87823716      -0.87823716
C        0.62421695       2.23442786      -1.00534210
N        1.36831508       3.07250218      -1.76908131
C        2.41197049       2.54056122      -2.43550532
N        3.11561498       3.43459297      -3.23962627
C        2.73041050       1.17939341      -2.36542927
Br       4.20087888       0.44211757      -3.30714661
C        1.95298587       0.33777076      -1.57057338
H       -0.20568163       2.70801701      -0.48808450
H        4.11591322       3.37565188      -3.08776961
H        2.74440078       4.36494887      -3.06586918
H        2.18189387      -0.72132063      -1.49756303
C       -0.87823716      -0.87823716      -0.87823716
C       -0.66480985      -2.24522323      -0.95395383
N       -1.41135951      -3.08384248      -1.71469658
C       -2.41543079      -2.54119761      -2.43140864
N       -3.12212002      -3.43831809      -3.22939611
C       -2.69124230      -1.16906466      -2.41492621
Br      -4.10625032      -0.41678481      -3.42710793
C       -1.91227008      -0.32693847      -1.62212146
H        0.13235854      -2.72768597      -0.39509245
H       -4.12426254      -3.34279353      -3.11227863
H       -2.78722101      -4.37378242      -3.01421540
H       -2.10861486       0.74069186      -1.59021328
C       -0.87823716       0.87823716       0.87823716
C       -2.13274115       0.44978839       1.28145737
N       -2.96363179       1.18156398       2.06470280
C       -2.52912824       2.39235890       2.46654989
N       -3.43773137       3.12099844       3.23110442
C       -1.27836574       2.90018293       2.09668450
Br      -0.67753878       4.60470926       2.66789502
C       -0.43972411       2.12787182       1.29373408
H       -2.52598843      -0.51792484       0.98235629
H       -3.01305232       3.49392714       4.07235525
H       -4.23280391       2.51772559       3.42468933
H        0.53661679       2.49872607       0.99602699
C        0.87823716      -0.87823716       0.87823716
C        2.21289267      -0.56759622       1.08349802
N        3.04881423      -1.30603428       1.85505006
C        2.53646545      -2.40120181       2.45036977
N        3.44702762      -3.14830838       3.19449823
C        1.20087131      -2.78688058       2.28748129
Br       0.49098974      -4.32937453       3.12977879
C        0.35933745      -2.00968944       1.49230312
H        2.67046543       0.30441299       0.62436744
H        3.09192074      -3.36992189       4.11749207
H        4.32189553      -2.63120413       3.22211917
H       -0.68151533      -2.28655071       1.35310089
