78
Properties=species:S:1:pos:R:3 pbc="F F F"
C        1.78814119       1.78814119      -1.78814119
C        1.53412098       3.14433189      -1.91524612
N        2.27821911       3.98240620      -2.67898533
C        3.32187451       3.45046524      -3.34540935
N        4.02551901       4.34449700      -4.14953030
C        3.64031452       2.08929744      -3.27533329
C        2.86288990       1.24767478      -2.48047740
H        0.70422239       3.61792104      -1.39798852
H        5.02581725       4.28555590      -3.99767363
H        3.65430480       5.27485289      -3.97577321
H        3.09179789       0.18858340      -2.40746705
C        4.75745720       1.52917502      -3.99077379
C        5.69306419       1.06007249      -4.58995521
Br       7.20586157       0.30157338      -5.55878089
C       -1.78814119      -1.78814119      -1.78814119
C       -1.61064804      -3.16194789      -1.82110306
N       -2.35936247      -4.00089113      -2.57935704
C       -3.32838367      -3.45144990      -3.33791554
N       -4.03788312      -4.35095395      -4.13070923
C       -3.56647778      -2.07245951      -3.36600796
C       -2.78613094      -1.22999774      -2.57491340
H       -0.84246201      -3.65004913      -1.22762081
H       -5.03978896      -4.22528664      -4.04397118
H       -3.73490211      -5.28878333      -3.88124546
H       -2.95365580      -0.15699535      -2.57719720
C       -4.60417776      -1.49369967      -4.17952858
C       -5.47325149      -1.00898830      -4.86085210
Br      -6.87847022      -0.22525102      -5.96249460
C       -1.78814119       1.78814119       1.78814119
C       -3.05530960       1.37327713       2.16511226
N       -3.88698522       2.10581424       2.94681118
C       -3.44016527       3.30326472       3.37431911
N       -4.34928920       4.03417747       4.13607963
C       -2.17603331       3.79702731       3.03188462
C       -1.33692617       3.02414767       2.22996825
H       -3.45873637       0.41661045       1.84478513
H       -3.93216636       4.38731950       4.98956092
H       -5.15654818       3.44055403       4.30782869
H       -0.35040322       3.38417098       1.95327414
C       -1.70646482       5.07778117       3.49316001
C       -1.31320121       6.15041253       3.87947815
Br      -0.67732722       7.88476671       4.50412191
C        1.78814119      -1.78814119       1.78814119
C        3.13228558      -1.49982410       1.96158931
N        3.96881925      -2.23953589       2.73125549
C        3.44728192      -3.31281133       3.35765585
N        4.35772417      -4.06317790       4.09864423
C        2.10158747      -3.67530530       3.22805248
C        1.25972541      -2.89719908       2.43411759
H        3.59744749      -0.64593243       1.47675203
H        4.01657748      -4.26001233       5.03245697
H        5.24274116      -3.56287991       4.09930983
H        0.21121659      -3.15623656       2.32039519
C        1.55249843      -4.82386098       3.90104659
C        1.09263636      -5.78577637       4.46467916
Br       0.34907830      -7.34111219       5.37602535
C       -0.00445707       0.01189536      -1.78238275
H       -0.66409135       0.67374010      -2.43557963
H        0.65740317      -0.63156657      -2.45157240
C       -0.90989263      -0.90692880      -0.91072765
C        0.90977584       0.90977584      -0.90977584
C       -0.00465871       1.77757030       0.00794375
H       -0.66225468       2.44313916      -0.64384735
H        0.64322798       2.43503045       0.67728295
C       -1.78241447       0.00034974      -0.00472694
H       -2.45427497      -0.65498947       0.64260836
H       -2.43311707       0.67328779      -0.65473579
C       -0.91132561       0.90220522       0.91563759
C       -0.01476271      -0.02253852       1.78660255
H       -0.67934791      -0.69751639       2.42135241
H        0.63392994       0.61504881       2.47327442
C        0.01484550      -1.77751727      -0.01636693
H        0.67870853      -2.42144646      -0.68295456
H       -0.62264859      -2.45592969       0.64226336
C        1.78714474       0.01002794       0.00389507
H        2.44202412       0.67113390       0.66197326
H        2.45385902      -0.65136977      -0.64189061
C        0.91606151      -0.90478549       0.90901405
