189
Properties=species:S:1:pos:R:3 pbc="F F F"
C        0.00000000       0.00000000       0.00000000
C        0.87780596       0.87780596      -0.87780596
C        1.89273515       1.64225500      -0.32505246
C        2.66729224       2.44911528      -1.16091282
C        2.39990529       2.47122473      -2.52613307
N        1.42765606       1.71488180      -3.08019853
C        0.68688195       0.94031327      -2.24736926
N        3.10320623       3.24698703      -3.45288190
C        4.07117200       4.17668787      -3.18908071
O        4.42984831       4.53443983      -2.07234768
C        4.74778660       4.75132711      -4.38999009
C        5.10778362       6.05916532      -4.39775374
C        4.59700963       7.08327542      -3.41548909
N        6.02647103       6.51805796      -5.34012742
C        6.84570148       5.65389038      -6.05458694
C        6.53899897       4.34091595      -6.11682489
C        7.43862493       3.38738549      -6.81921509
O        7.19635944       2.18200987      -6.81731892
C        8.62432591       3.94758833      -7.57209858
C        9.17592615       5.18257767      -6.87895062
C        8.08936705       6.23434437      -6.67991306
C        5.28411734       3.79321102      -5.45308815
H        5.56672658       2.86745453      -4.93201128
C        4.21554888       3.47666111      -6.50834736
C        3.64439882       4.49226668      -7.29891151
C        2.67903384       4.19501724      -8.26217684
C        2.26330207       2.87885478      -8.44783966
C        2.82267399       1.86429751      -7.67382728
Br       2.25236239       0.07898866      -7.92371916
C        3.79641620       2.15218829      -6.71558178
H        2.09376745       1.62600057       0.74238829
H        3.46351713       3.03431209      -0.71642560
H       -0.08878644       0.35880030      -2.73741337
H        2.78180861       3.09755175      -4.39923635
H        3.58309166       6.85241704      -3.07276798
H        4.54629070       8.07343697      -3.88273808
H        5.26342811       7.15077925      -2.55021650
H        6.38835047       7.45690334      -5.18197918
H        9.40456984       3.17990149      -7.61507159
H        8.30672949       4.17671248      -8.59489293
H       10.00144706       5.60486917      -7.46257428
H        9.58767747       4.89898917      -5.90112613
H        7.82319699       6.68898009      -7.64180239
H        8.49513872       7.03259358      -6.04642540
H        3.95474291       5.52888137      -7.17603201
H        2.25399536       4.99111961      -8.86867159
H        1.50991547       2.65469789      -9.19819858
H        4.23611784       1.34365087      -6.13414645
C       -0.87780596      -0.87780596      -0.87780596
C       -0.39959472      -1.38520135      -2.07524655
C       -1.24075962      -2.17376931      -2.86279141
C       -2.53881011      -2.42750887      -2.43094412
N       -3.01008852      -1.95665116      -1.25599671
C       -2.17466666      -1.19102300      -0.50887482
N       -3.46835777      -3.19361962      -3.14109778
C       -3.32102233      -3.72169661      -4.39422164
O       -2.36019163      -3.54183050      -5.13461368
C       -4.42917220      -4.61621041      -4.84372120
C       -4.82036350      -4.60182571      -6.14251346
C       -4.44852856      -3.52091255      -7.12633302
N       -5.59232351      -5.64837773      -6.64395516
C       -5.70314358      -6.86581773      -5.98521749
C       -5.35884723      -6.95474778      -4.68314480
C       -5.40539817      -8.26283221      -3.97699513
O       -5.02634446      -8.35805743      -2.81128634
C       -5.97569922      -9.45265755      -4.71565605
C       -5.66392143      -9.37251909      -6.20101392
C       -6.15176129      -8.05563804      -6.79622515
C       -4.89075364      -5.73238143      -3.90728144
H       -4.01351935      -6.03480836      -3.31786467
C       -5.99572619      -5.24439860      -2.96043256
C       -7.22153324      -4.75910013      -3.45494365
C       -8.22454327      -4.32479391      -2.58689074
C       -8.01770638      -4.36213868      -1.21015145
C       -6.81013498      -4.84267876      -0.70798504
Br      -6.52948444      -4.88690756       1.16132180
C       -5.80602361      -5.28873470      -1.56942795
H        0.61286747      -1.17935727      -2.41088993
H       -0.85059669      -2.57163268      -3.79202545
H       -2.60157757      -0.82722036       0.42137071
H       -4.34325869      -3.29058674      -2.64475129
H       -4.32068392      -2.54906800      -6.63852476
H       -5.24103000      -3.38946425      -7.87197150
H       -3.52674742      -3.78328210      -7.65439434
H       -5.69993743      -5.67076128      -7.65653428
H       -5.53148117     -10.36501430      -4.30304746
H       -7.05620010      -9.48278486      -4.53934994
H       -6.12591188     -10.21425405      -6.72872459
H       -4.57932693      -9.45711935      -6.35134649
H       -7.24682409      -8.05103456      -6.85612082
H       -5.77164984      -7.98013749      -7.82237037
H       -7.40974597      -4.72293545      -4.52697486
H       -9.16773250      -3.95982941      -2.98622465
H       -8.80208600      -4.02066383      -0.54006211
H       -4.87689730      -5.67918481      -1.15783306
C       -0.87780596       0.87780596       0.87780596
C       -0.99161851       0.63175605       2.23666805
C       -1.82055916       1.44910646       3.00765473
C       -2.51597202       2.48662866       2.39466242
N       -2.39727396       2.75017988       1.07528254
C       -1.58735086       1.94088612       0.34632749
N       -3.37898081       3.35901941       3.06507495
C       -3.77377674       3.29030201       4.37286184
O       -3.48411138       2.39423820       5.15828622
C       -4.59376176       4.44241391       4.85292814
C       -5.60541344       4.22838071       5.73090852
C       -6.19330070       2.87217629       6.03029714
N       -6.14338765       5.30033373       6.44093502
C       -5.48470791       6.51781401       6.55165688
C       -4.48398130       6.81626964       5.69648887
C       -3.72071505       8.08464097       5.83986949
O       -2.76470987       8.32567287       5.10530549
C       -4.18439383       9.08327156       6.87634742
C       -4.77097770       8.37821659       8.08826014
C       -5.89284624       7.42751974       7.68325850
C       -4.09008872       5.85948711       4.58084068
H       -2.99210510       5.80830811       4.56577918
C       -4.59334517       6.37976081       3.22745138
C       -5.96957058       6.50751726       2.95848918
C       -6.41898932       6.98924753       1.72799107
C       -5.50128760       7.34576058       0.74294832
C       -4.13662840       7.22661044       0.99755994
Br      -2.89280626       7.70573802      -0.34347407
C       -3.67902688       6.75553635       2.22962304
H       -0.45109180      -0.18328806       2.70957599
H       -1.89273299       1.25105687       4.07046495
H       -1.53235400       2.18564285      -0.71056963
H       -3.76027208       4.06620703       2.45211760
H       -6.14005374       2.20248169       5.16574125
H       -7.25530752       2.96069852       6.28645971
H       -5.67801504       2.40910791       6.87730091
H       -6.76780439       5.05282844       7.20660016
H       -3.32435478       9.68453044       7.19065771
H       -4.92014293       9.74754978       6.41064219
H       -5.14733656       9.11471682       8.80683714
H       -3.98137825       7.80928323       8.59713129
H       -6.77879936       7.99727303       7.37790708
H       -6.17633616       6.83565184       8.56216971
H       -6.70755120       6.23908760       3.71301748
H       -7.48541226       7.08810924       1.54026506
H       -5.85806470       7.71826476      -0.21351752
H       -2.60877982       6.68802638       2.41710897
C        0.87780596      -0.87780596       0.87780596
C        1.06372190      -2.21788528       0.57843543
C        1.86334744      -2.99650848       1.41746443
C        2.44995405      -2.41185995       2.53544910
N        2.29397319      -1.10219216       2.82657104
C        1.51075113      -0.36628155       1.99753180
N        3.25941444      -3.09622172       3.44743901
C        3.52423501      -4.43786689       3.47483868
O        3.02602044      -5.27761788       2.73299749
C        4.53875563      -4.86725712       4.48309106
C        4.38461230      -6.04892446       5.13116591
C        3.09872462      -6.83642722       5.16062229
N        5.46719740      -6.61708105       5.80037795
C        6.77523552      -6.21547736       5.56346592
C        7.01145926      -5.03808657       4.94719397
C        8.40160311      -4.62050873       4.62311367
O        8.61347223      -3.58171611       4.00049989
C        9.54008626      -5.48120165       5.12272490
C        9.14535848      -6.94874384       5.14335213
C        7.87621206      -7.16659618       5.96081624
C        5.86911111      -4.11740937       4.54389603
H        6.07935604      -3.76155728       3.52527906
C        5.78890175      -2.91601159       5.49564401
C        5.49076747      -3.08321631       6.86159324
C        5.42775135      -1.98620632       7.72227025
C        5.65543829      -0.70279242       7.23176579
C        5.95406553      -0.52412167       5.88261158
Br       6.25701271       1.21984225       5.21789975
C        6.02929955      -1.61738232       5.01750439
H        0.59873906      -2.67111421      -0.29247354
H        2.00764228      -4.04053134       1.16608120
H        1.40704709       0.67792746       2.27830760
H        3.61841280      -2.48907162       4.17111229
H        2.21907127      -6.18714832       5.10205709
H        3.00906041      -7.39259749       6.10080786
H        3.07081444      -7.55647078       4.33713865
H        5.33855179      -7.57891724       6.10976397
H       10.39743001      -5.34813759       4.45397532
H        9.82271853      -5.13353233       6.12208405
H        9.96200645      -7.55262652       5.55425756
H        8.97683376      -7.29582642       4.11513259
H        8.08816383      -7.03682060       7.02899505
H        7.55003297      -8.20432479       5.81979995
H        5.31226620      -4.07648607       7.27090401
H        5.20328180      -2.13475489       8.77574988
H        5.60289853       0.14704731       7.90696072
H        6.28332070      -1.45989937       3.97069509
