130
Properties=species:S:1:pos:R:3 pbc="F F F"
C        1.79127180       1.79127180      -1.79127180
C        1.36868696       2.13041308      -3.07371200
C        2.16343954       2.96180042      -3.86852329
C        3.36698487       3.48489572      -3.37715849
C        3.79860687       3.09057377      -2.10348351
C        3.01090362       2.25552988      -1.30669172
N        4.17865021       4.37885768      -4.10985119
C        3.82445392       5.18593837      -5.20790118
N        4.68840464       5.12053514      -6.23748555
C        4.38379082       5.84944910      -7.31513400
N        3.30503985       6.62463711      -7.46608821
C        2.47179434       6.70586158      -6.42574968
C        1.34468918       7.51139299      -6.54543907
C        0.42899886       7.66850275      -5.50079006
C        0.65874610       7.02392913      -4.29548057
Br      -0.55673518       7.22399555      -2.86480830
C        1.78337597       6.22035872      -4.14424926
C        2.68703182       6.01909735      -5.22197729
H        0.42282825       1.76283045      -3.46276488
H        1.81872620       3.20608329      -4.87020053
H        4.73994814       3.46690413      -1.70897516
H        3.35152602       1.98860150      -0.30999346
H        5.05438290       3.92483226      -4.36726009
H        5.07567278       5.80636161      -8.14975904
H        1.17166924       8.03474021      -7.48418824
H       -0.44481214       8.29887172      -5.64058842
H        1.96510255       5.74297032      -3.18479723
C       -1.79127180      -1.79127180      -1.79127180
C       -1.93381321      -1.49491445      -3.14408438
C       -2.71766127      -2.32018975      -3.95591223
C       -3.33652861      -3.46224438      -3.43026609
C       -3.22206054      -3.71418542      -2.05641818
C       -2.44425974      -2.88972909      -1.23913638
N       -4.08693347      -4.36608095      -4.21434466
C       -4.06115657      -4.54662316      -5.61051374
N       -5.27940568      -4.58640137      -6.18061828
C       -5.30880588      -4.73091228      -7.50865575
N       -4.24835644      -4.83073738      -8.31667135
C       -3.04598530      -4.82162796      -7.73579234
C       -1.92164077      -4.93360494      -8.54627552
C       -0.62589281      -4.95072592      -8.02167295
C       -0.44958209      -4.87982368      -6.64875003
Br       1.28830976      -4.90861382      -5.91176460
C       -1.55661857      -4.77774314      -5.81362223
C       -2.87088269      -4.70835169      -6.34887208
H       -1.43580876      -0.63279342      -3.57982139
H       -2.82293828      -2.06472551      -5.00734623
H       -3.71115328      -4.58312731      -1.62154685
H       -2.34464380      -3.12292808      -0.18254910
H       -5.07209404      -4.31778032      -3.95660088
H       -6.28634342      -4.76749914      -7.97795087
H       -2.05752941      -5.00935385      -9.62371443
H        0.22568113      -5.02840044      -8.69192870
H       -1.40465223      -4.75053159      -4.73768627
C       -1.79127180       1.79127180       1.79127180
C       -3.06158260       2.15687226       1.35435718
C       -3.87871809       2.93956140       2.17548376
C       -3.44621879       3.33424692       3.44857336
C       -2.14558793       2.99872679       3.84834943
C       -1.32246761       2.22111620       3.02954140
N       -4.25117465       4.07057334       4.34561107
C       -5.65141438       4.21845451       4.34842457
N       -6.06795688       5.49034657       4.48812188
C       -7.38945532       5.68732388       4.47159472
N       -8.32721033       4.74617722       4.32237762
C       -7.90242723       3.48462330       4.21635508
C       -8.85213140       2.47955268       4.06983717
C       -8.49774795       1.13091066       3.96963307
C       -7.16043486       0.77429091       4.04343003
Br      -6.65314895      -1.03992636       3.91884607
C       -6.19001978       1.75769567       4.20026849
C       -6.54528497       3.13242155       4.25039994
H       -3.43010098       1.83408377       0.38423882
H       -4.86318919       3.22137790       1.81044294
H       -1.77996567       3.31204477       4.82381699
H       -0.32912501       1.94686774       3.37412822
H       -3.87052505       5.00841474       4.46753546
H       -7.73597714       6.70898933       4.58682695
H       -9.90474053       2.75452470       4.03133246
H       -9.27146740       0.37843820       3.84474241
H       -5.14764642       1.46119264       4.28403103
C        1.79127180      -1.79127180       1.79127180
C        3.16891924      -1.81234816       1.59154464
C        3.97760018      -2.59740030       2.41876277
C        3.42066657      -3.33954548       3.46882703
C        2.02749115      -3.34444634       3.62072667
C        1.21379840      -2.56586453       2.79346228
N        4.19348497      -4.09945696       4.37441715
C        5.56674159      -3.98713722       4.66441464
N        6.22553140      -5.16047113       4.66042280
C        7.53793316      -5.10512968       4.90531108
N        8.25168795      -4.00013377       5.14394345
C        7.58120696      -2.84575147       5.17644717
C        8.29156795      -1.67798846       5.43196483
C        7.66788899      -0.42873665       5.50166604
C        6.29411543      -0.34696170       5.33707867
Br       5.42401406       1.32570697       5.43376157
C        5.55718843      -1.50006236       5.09073315
C        6.19666635      -2.76289124       4.96854888
H        3.62565651      -1.21864793       0.80411913
H        5.04972083      -2.60634833       2.23894086
H        1.57042925      -3.92975332       4.41564486
H        0.13860039      -2.56118530       2.95033529
H        4.01732129      -5.09389522       4.23525874
H        8.07798675      -6.04613589       4.90767079
H        9.36803112      -1.74126570       5.58130086
H        8.26250913       0.46034663       5.69248551
H        4.47746700      -1.42446568       4.99093742
C       -0.00445707       0.01189536      -1.78238275
H       -0.66409135       0.67374010      -2.43557963
H        0.65740317      -0.63156657      -2.45157240
C       -0.90989263      -0.90692880      -0.91072765
C        0.90977584       0.90977584      -0.90977584
C       -0.00465871       1.77757030       0.00794375
H       -0.66225468       2.44313916      -0.64384735
H        0.64322798       2.43503045       0.67728295
C       -1.78241447       0.00034974      -0.00472694
H       -2.45427497      -0.65498947       0.64260836
H       -2.43311707       0.67328779      -0.65473579
C       -0.91132561       0.90220522       0.91563759
C       -0.01476271      -0.02253852       1.78660255
H       -0.67934791      -0.69751639       2.42135241
H        0.63392994       0.61504881       2.47327442
C        0.01484550      -1.77751727      -0.01636693
H        0.67870853      -2.42144646      -0.68295456
H       -0.62264859      -2.45592969       0.64226336
C        1.78714474       0.01002794       0.00389507
H        2.44202412       0.67113390       0.66197326
H        2.45385902      -0.65136977      -0.64189061
C        0.91606151      -0.90478549       0.90901405
