109
Properties=species:S:1:pos:R:3 pbc="F F F"
C        0.00000000       0.00000000       0.00000000
C        0.88136778       0.88136778      -0.88136778
C        0.45878294       1.22050905      -2.16380797
C        1.25353551       2.05189640      -2.95861927
C        2.45708084       2.57499169      -2.46725447
C        2.88870284       2.18066975      -1.19357949
C        2.10099959       1.34562585      -0.39678769
N        3.26874618       3.46895365      -3.19994717
C        2.91454989       4.27603434      -4.29799716
N        3.77850061       4.21063112      -5.32758152
C        3.47388679       4.93954508      -6.40522997
N        2.39513583       5.71473308      -6.55618419
C        1.56189032       5.79595756      -5.51584565
C        0.43478515       6.60148897      -5.63553505
C       -0.48090517       6.75859873      -4.59088604
C       -0.25115793       6.11402511      -3.38557654
Br      -1.46663921       6.31409152      -1.95490428
C        0.87347194       5.31045470      -3.23434523
C        1.77712779       5.10919333      -4.31207327
H       -0.48707577       0.85292642      -2.55286085
H        0.90882218       2.29617926      -3.96029651
H        3.83004412       2.55700011      -0.79907114
H        2.44162199       1.07869748       0.59991057
H        4.14447887       3.01492824      -3.45735606
H        4.16576875       4.89645759      -7.23985501
H        0.26176521       7.12483619      -6.57428422
H       -1.35471616       7.38896769      -4.73068440
H        1.05519852       4.83306630      -2.27489321
C       -0.88136778      -0.88136778      -0.88136778
C       -0.57736933      -1.03439416      -2.23133647
C       -1.36832893      -1.86532964      -3.03039261
C       -2.44603007      -2.57250173      -2.48079520
C       -2.76569487      -2.36510430      -1.13215291
C       -1.98184856      -1.53157912      -0.32998546
N       -3.24000753      -3.47365338      -3.22398609
C       -2.93366181      -4.11597575      -4.43894383
N       -3.91320069      -4.04470138      -5.35881118
C       -3.66157731      -4.61767027      -6.53941427
N       -2.53304364      -5.24275366      -6.89025579
C       -1.58094907      -5.33433058      -5.95841388
C       -0.39787911      -5.98702725      -6.28690280
C        0.64402748      -6.14445875      -5.36814833
C        0.48990198      -5.65936883      -4.07897688
Br       1.87714285      -5.86453045      -2.81496899
C       -0.68686406      -5.01159397      -3.71981384
C       -1.72529552      -4.80572248      -4.66737638
H        0.27376739      -0.52131723      -2.67116165
H       -1.11855598      -1.96279716      -4.08394481
H       -3.61082957      -2.88686483      -0.68842096
H       -2.23050617      -1.41075112       0.72084838
H       -4.18200675      -3.09994148      -3.33481494
H       -4.44623301      -4.56872057      -7.28712778
H       -0.28147300      -6.38658770      -7.29282491
H        1.55638703      -6.65139258      -5.66993038
H       -0.80470476      -4.66058942      -2.69786384
C       -0.88136778       0.88136778       0.88136778
C       -2.18764516       1.16398060       0.49147421
C       -3.00287334       1.94695054       1.31422730
C       -2.53061916       2.42472614       2.54398171
C       -1.19735758       2.17171023       2.89388427
C       -0.37630191       1.39420665       2.07290458
N       -3.32777932       3.16580740       3.44406028
C       -4.73193569       3.24697525       3.50967045
N       -5.20428094       4.50303103       3.60940129
C       -6.53324983       4.63595370       3.64945832
N       -7.42893261       3.64506278       3.59205771
C       -6.94728252       2.40139126       3.52501975
C       -7.85157014       1.34629524       3.47394379
C       -7.43553336       0.01268897       3.42035727
C       -6.08010640      -0.27589012       3.44422745
Br      -5.48947086      -2.06792020       3.38080594
C       -5.15358644       0.75908978       3.50559565
C       -5.57418175       2.11617909       3.50803355
H       -2.58526644       0.77607852      -0.44263346
H       -4.01639795       2.16313807       0.98576193
H       -0.80189922       2.55029349       3.83392265
H        0.64472430       1.18497054       2.38016266
H       -2.98901077       4.12558088       3.50217152
H       -6.92442433       5.64448244       3.73317458
H       -8.91722130       1.56870203       3.47496228
H       -8.17582339      -0.78097190       3.37008443
H       -4.09492360       0.51697386       3.55126056
C        0.88136778      -0.88136778       0.88136778
C        2.11054416      -1.32829393       0.40426188
C        2.92947354      -2.11087581       1.22370182
C        2.54162886      -2.42448736       2.53321079
C        1.27899564      -2.00782125       2.97613518
C        0.45397209      -1.22990727       2.15953378
N        3.35425607      -3.15669351       3.42669742
C        4.74459216      -3.37230281       3.37168642
N        5.10793367      -4.65511145       3.55366814
C        6.41648525      -4.91676887       3.48540774
N        7.38854981      -4.03035450       3.24714878
C        7.01814634      -2.75589555       3.09965163
C        8.00523274      -1.80615873       2.86041769
C        7.70939667      -0.44796747       2.71121546
C        6.39526842      -0.02359994       2.82957536
Br       5.96730813       1.80542581       2.64047427
C        5.38902674      -0.95023212       3.07901301
C        5.68209272      -2.33681619       3.17948548
H        2.44596961      -1.06923199      -0.59649010
H        3.88084900      -2.45694958       0.82749937
H        0.94716003      -2.25732679       3.98162853
H       -0.50760232      -0.89190212       2.53610911
H        2.93685846      -4.06820938       3.61169534
H        6.72039257      -5.94764398       3.63404481
H        9.04081245      -2.13355926       2.78651390
H        8.51022112       0.25931873       2.51403354
H        4.36686353      -0.59974634       3.19654815
