173
Properties=species:S:1:pos:R:3 pbc="F F F"
C        0.00000000       0.00000000       0.00000000
N        7.90236282       2.60341926      -4.87198792
C        6.88937786       3.05896035      -4.54075593
C        5.62411773       3.59843230      -4.15351722
C        4.60209368       2.78367242      -3.77066367
N        4.75550754       1.39942720      -3.83733275
N        3.35682704       3.33394286      -3.33269832
C        2.50256743       2.50934774      -2.51025374
C        1.14434762       2.32057579      -2.80766155
C        0.33325388       1.52508127      -1.98874906
C        0.88145907       0.88145907      -0.88145907
C        2.23054727       1.02923069      -0.57948935
C        3.03020922       1.84552347      -1.38353964
C        3.13665604       4.72289125      -3.35423006
C        1.79719017       5.36728330      -3.09266663
C        1.78623010       6.87259981      -3.37209849
C        2.90013295       7.57631171      -2.61227565
C        4.24397807       6.98546863      -2.96365520
O        5.28944134       7.59612332      -2.75513294
C        4.26893128       5.60717657      -3.51006015
C        5.51118128       5.11598382      -4.19381703
H        6.37222557       5.49165488      -3.61981501
C        5.60725482       5.66311298      -5.62031333
S        6.57416958       7.04637389      -5.95164179
C        6.16799619       7.02004163      -7.61240713
C        5.33266036       5.97284780      -7.90309542
C        4.99410955       5.19294117      -6.77075952
H        5.45824627       1.05759901      -4.48814959
H        3.86302019       0.92331700      -3.95795336
H        0.70422147       2.77492868      -3.68995513
H       -0.72017628       1.40753032      -2.22944009
H        2.67313734       0.51770843       0.27121655
H        4.08414791       1.95444348      -1.13266682
H        1.03739063       4.92221944      -3.74260462
H        1.50020894       5.19502106      -2.05163400
H        1.90694247       7.04580715      -4.45030536
H        0.81564717       7.29531837      -3.08955452
H        2.75190258       7.48886700      -1.53092207
H        2.90727141       8.63752626      -2.88345844
H        6.56901699       7.76642108      -8.28381284
H        4.34387557       4.32602759      -6.79167244
C        4.82805768       5.66582720      -9.21637927
C        4.40545294       5.40869745     -10.31625450
Br       3.72213681       4.99294038     -12.09465972
N       -3.29269125      -8.17502811      -3.91005064
C       -3.41507617      -7.03025175      -4.04376622
C       -3.58125410      -5.61732230      -4.17749085
C       -3.20768024      -4.76982458      -3.17892495
N       -2.73615031      -5.28429443      -1.97182276
N       -3.32699119      -3.35407707      -3.34239996
C       -2.51189052      -2.50357332      -2.50670507
C       -3.05834263      -1.43619672      -1.77804561
C       -2.24576710      -0.61834600      -0.98297111
C       -0.88145907      -0.88145907      -0.88145907
C       -0.31864862      -1.94945205      -1.57116665
C       -1.12817204      -2.74643614      -2.38466415
C       -3.89651678      -2.80975514      -4.50750543
C       -4.23193208      -1.34806286      -4.67714516
C       -5.02142454      -1.05393392      -5.95556993
C       -4.30461460      -1.60590040      -7.17820530
C       -4.06789094      -3.08982967      -7.03538129
O       -3.83114001      -3.80007244      -8.00948515
C       -4.06258665      -3.65791551      -5.66566585
C       -4.18606816      -5.14332109      -5.49159288
H       -3.58410702      -5.61762927      -6.28195917
C       -5.63886544      -5.59766287      -5.65415281
S       -6.18237091      -6.23238343      -7.15743092
C       -7.76984730      -6.46460766      -6.56598999
C       -7.87164675      -6.08379573      -5.25316111
C       -6.66235377      -5.57538635      -4.72007011
H       -3.02064990      -6.23479870      -1.74854627
H       -2.90272993      -4.64604519      -1.19551544
H       -4.12546972      -1.23847452      -1.80516104
H       -2.68887086       0.21329787      -0.44122113
H        0.74103873      -2.17519652      -1.48547143
H       -0.67271342      -3.57711541      -2.92142936
H       -4.85168519      -1.00948838      -3.84104112
H       -3.31028069      -0.75463493      -4.68194838
H       -6.02176481      -1.50184723      -5.87944292
H       -5.16510635       0.02703161      -6.06244532
H       -3.33896429      -1.11026554      -7.32246181
H       -4.92410987      -1.43830158      -8.06584466
H       -8.53683555      -6.87378098      -7.20863438
H       -6.53852565      -5.21910543      -3.70394451
C       -9.07192274      -6.17545616      -4.46288526
C      -10.07715388      -6.25222177      -3.80102924
Br     -11.70252761      -6.37634527      -2.73086403
N       -4.25421709       3.01262772       8.11092519
C       -4.29779462       3.21989676       6.97140275
C       -4.31941203       3.48854437       5.56811085
C       -3.29011635       3.10198468       4.76432874
N       -2.15659658       2.51273885       5.32293206
N       -3.34425251       3.32628942       3.35292629
C       -2.50613836       2.51207374       2.50395680
C       -1.66879289       3.07495697       1.52883510
C       -0.87326042       2.26397564       0.70984815
C       -0.88145907       0.88145907       0.88145907
C       -1.68116650       0.29948498       1.85861582
C       -2.49375374       1.11012294       2.65539566
C       -4.42735017       4.01206159       2.77436559
C       -4.47001660       4.45493323       1.33219026
C       -5.66908784       5.35108499       1.01075557
C       -6.97273034       4.68796726       1.42802270
C       -6.95178501       4.34375041       2.89756647
O       -7.98747316       4.13024604       3.52297839
C       -5.62929937       4.20340259       3.55346604
C       -5.55345782       4.21536422       5.05216008
H       -6.41373870       3.64097311       5.42898364
C       -5.65115120       5.64268611       5.59684380
S       -7.15636507       6.24837092       6.16744927
C       -6.47890431       7.77086851       6.55067213
C       -5.13847054       7.80412217       6.26601087
C       -4.65200151       6.59639640       5.70941234
H       -1.98307394       2.71694920       6.30397173
H       -1.32754164       2.66568922       4.75105970
H       -1.61091749       4.15207332       1.40611446
H       -0.24555451       2.72164669      -0.05040708
H       -1.68223825      -0.77625074       2.01364170
H       -3.11724970       0.63986522       3.41414329
H       -3.57268372       5.03477423       1.09475674
H       -4.49376276       3.57736659       0.67573465
H       -5.55878994       6.31155223       1.53271280
H       -5.68907572       5.57340790      -0.06196356
H       -7.14514051       3.77003540       0.85651572
H       -7.80314316       5.37875050       1.24636245
H       -7.09670044       8.55275868       6.96979178
H       -3.62357956       6.42455724       5.41343879
C       -4.27881586       8.93644572       6.49500258
C       -3.55885506       9.88476669       6.68678313
Br      -2.39473934      11.41812150       6.99687607
N        2.09789371      -6.20251323       7.07736306
C        2.64952440      -5.51263333       6.32693642
C        3.31827350      -4.68207272       5.37572102
C        2.66824064      -4.21394976       4.27423937
N        1.35797691      -4.61612930       4.01816128
N        3.32868553      -3.33914904       3.35563366
C        2.51105500      -2.50830818       2.50280572
C        2.70860072      -2.44909675       1.11488749
C        1.90993381      -1.62733572       0.30981468
C        0.88145907      -0.88145907       0.88145907
C        0.64621914      -0.94265584       2.25039233
C        1.46267233      -1.74285717       3.05374283
C        4.68223445      -2.99994595       3.53159695
C        5.50012177      -2.24386476       2.51315356
C        6.98951978      -2.17937811       2.86203051
C        7.19773696      -1.62716042       4.26382292
C        6.45404751      -2.45705360       5.28200079
O        6.74332336      -2.42186787       6.47550637
C        5.31048961      -3.27130968       4.80436871
C        4.77443145      -4.36269798       5.68385269
H        4.78154069      -3.98443862       6.71771615
C        5.66318382      -5.60749304       5.62000426
S        6.84291717      -5.89003832       6.83922979
C        7.36780989      -7.33738069       6.09525437
C        6.64763845      -7.60167050       4.95929464
C        5.67489741      -6.61470641       4.66820643
H        1.06835656      -5.49441894       4.44121938
H        1.13735796      -4.58274135       3.02419125
H        3.47404963      -3.05504323       0.64001241
H        2.09295802      -1.58460138      -0.76076527
H       -0.16448489      -0.37923539       2.70487872
H        1.26862411      -1.77805326       4.12458083
H        5.42746338      -2.73629331       1.53845800
H        5.11274515      -1.22355295       2.41056589
H        7.42595751      -3.18521306       2.79188441
H        7.51487884      -1.55392790       2.13171332
H        6.84661767      -0.59231391       4.33276006
H        8.26519481      -1.65529225       4.50776904
H        8.16742790      -7.91741824       6.53440477
H        5.00866939      -6.63928554       3.81362066
C        6.83413470      -8.75653769       4.11959177
C        6.99032531      -9.72373897       3.41634061
Br       7.24287231     -11.28762163       2.27924297
