174
Properties=species:S:1:pos:R:3 pbc="F F F"
C        1.79161714       1.79161714      -1.79161714
C        1.22179697       2.51311940      -2.83846090
C        2.02809767       3.31607779      -3.64904857
C        3.40853157       3.40289214      -3.41451636
C        3.96574903       2.66679860      -2.35751993
C        3.16023077       1.86531882      -1.54669546
C        4.29688666       4.23909676      -4.30907171
N        4.77961032       3.48540558      -5.45270087
C        4.04517387       3.47413307      -6.62197393
N        4.35978947       2.84761573      -7.70672668
C        5.52381584       2.15463733      -7.63228678
S        6.09433617       1.27601436      -8.97344558
C        7.48314858       0.76871525      -8.12278212
C        7.52561628       1.23967778      -6.82045906
C        8.66183858       0.89644223      -5.96201554
C        9.13410363      -0.42523559      -5.90085222
C       10.23988483      -0.75358330      -5.10986642
C       10.87317797       0.23588199      -4.36310878
C       10.41658224       1.55047133      -4.40908783
C        9.32222618       1.88007526      -5.21537453
C        6.36959669       2.05911775      -6.54286998
C        5.97152928       2.76801334      -5.33255687
O        6.63487597       2.75065570      -4.29864662
H        0.15386118       2.45360251      -3.03369709
H        1.56604621       3.86883471      -4.46390658
H        5.03716135       2.70539912      -2.16282833
H        3.61177358       1.30057888      -0.73510652
H        5.14275253       4.63236837      -3.73247326
H        3.73308653       5.11236674      -4.66325241
H        3.11707448       4.06848073      -6.58583175
H        8.20854744       0.14770730      -8.63137809
H        8.64592206      -1.21575389      -6.46572860
H       10.59381774      -1.78178234      -5.08291934
H       10.90166709       2.32815332      -3.82352401
H        8.99347897       2.91512320      -5.24574421
C       12.00729677      -0.10108561      -3.54223889
C       12.95712127      -0.38329598      -2.85476036
Br      14.49290715      -0.83960627      -1.74316572
C       -1.79161714      -1.79161714      -1.79161714
C       -2.31391599      -2.97817181      -1.28128947
C       -3.11644292      -3.78827672      -2.08850440
C       -3.40230372      -3.41371965      -3.40991669
C       -2.86516812      -2.21672652      -3.90817291
C       -2.06422380      -1.40648718      -3.10153406
C       -4.23856101      -4.30161032      -4.30488380
N       -3.42866638      -5.27987941      -5.00917099
C       -3.19422567      -6.51311515      -4.43394005
N       -2.49507029      -7.46817978      -4.95088181
C       -1.96710472      -7.17728937      -6.16634587
S       -1.02305301      -8.32469434      -6.99604875
C       -0.79323420      -7.26696514      -8.31444661
C       -1.40840989      -6.03790658      -8.13943664
C       -1.30932723      -5.02143489      -9.18953424
C       -0.07294042      -4.74168981      -9.79509004
C        0.02284731      -3.79699156     -10.82202371
C       -1.11580737      -3.11488303     -11.24147834
C       -2.34888046      -3.37701540     -10.65024553
C       -2.44563655      -4.33567685      -9.63636257
C       -2.10139326      -5.99685388      -6.87333728
C       -2.88526280      -4.93774176      -6.24909492
O       -3.06738568      -3.84227026      -6.77452235
H       -2.09876040      -3.28250114      -0.25989923
H       -3.51193398      -4.71283709      -1.67401644
H       -3.06008398      -1.90990785      -4.93539698
H       -1.65523053      -0.48481292      -3.50741554
H       -4.79733029      -3.68828462      -5.02197925
H       -4.98865267      -4.82387252      -3.69618049
H       -3.66708329      -6.65619242      -3.44811124
H       -0.21571955      -7.60888401      -9.16302927
H        0.83098094      -5.25338207      -9.47349564
H        0.98869909      -3.60120911     -11.28244472
H       -3.24207136      -2.84365914     -10.96761392
H       -3.42103248      -4.53288093      -9.20043297
C       -1.01843721      -2.13647313     -12.29353971
C       -0.93688970      -1.31705484     -13.17464111
Br      -0.80503428       0.00787523     -14.59930755
C       -1.79161714       1.79161714       1.79161714
C       -2.90882219       1.24504303       2.41951205
C       -3.71920022       2.05177961       3.22224421
C       -3.41416669       3.40919391       3.40257946
C       -2.28668458       3.94341875       2.75996423
C       -1.47611382       3.13736643       1.95876480
C       -4.30564821       4.30079631       4.23861061
N       -5.37473130       4.89060115       3.45238432
C       -6.58016427       4.22764160       3.33347499
N       -7.60730641       4.63940352       2.66742196
C       -7.42815269       5.83361517       2.04897210
S       -8.68195249       6.52940737       1.13243625
C       -7.72753763       7.89195340       0.75515492
C       -6.45467453       7.83197786       1.29910073
C       -5.51608153       8.93322513       1.07098969
C       -5.35160631       9.47347151      -0.21535755
C       -4.48280719      10.54750321      -0.43414245
C       -3.76138920      11.08028835       0.63049120
C       -3.90944780      10.55516329       1.91153031
C       -4.79293977       9.49334609       2.13139011
C       -6.28990521       6.61813965       2.06353956
C       -5.14704977       6.11128878       2.81376093
O       -4.07879507       6.71289920       2.89248402
H       -3.15900264       0.19530080       2.28685733
H       -4.58933201       1.60837273       3.70108276
H       -2.03562990       4.99781491       2.87194399
H       -0.60912001       3.57115296       1.46718602
H       -3.70716957       5.08840055       4.71202404
H       -4.74099456       3.71126980       5.05644132
H       -6.63027158       3.26757012       3.87354525
H       -8.15799861       8.67912213       0.15051208
H       -5.89535781       9.06367331      -1.06313434
H       -4.37616632      10.95557423      -1.43678581
H       -3.34449570      10.96137341       2.74747531
H       -4.90200023       9.11020058       3.14214558
C       -2.86073110      12.18129244       0.40642652
C       -2.10642994      13.10338337       0.21877234
Br      -0.88678877      14.59432641      -0.08464859
C        1.79161714      -1.79161714       1.79161714
C        3.05858699      -2.16579904       1.34899124
C        3.86417361      -2.97664822       2.15240221
C        3.40673126      -3.41517566       3.40403315
C        2.12668587      -3.03101425       3.83236744
C        1.32197020      -2.21989585       3.03037899
C        4.25500096      -4.32441093       4.26564325
N        4.03244124      -5.72632613       3.95894940
C        4.80275978      -6.34453386       2.99398722
N        4.70789598      -7.57924451       2.62699139
C        3.74861205      -8.28239479       3.27973313
S        3.49060619      -9.92697311       2.92621681
C        2.24644311     -10.04054736       4.08765548
C        2.00122854      -8.84357814       4.74094644
C        0.96511169      -8.78067994       5.77450472
C       -0.29764800      -9.35491042       5.55245786
C       -1.28010513      -9.32867086       6.54760222
C       -1.01100147      -8.71528523       7.76788498
C        0.23393012      -8.13813777       8.00407350
C        1.22126785      -8.18207494       7.01433317
C        2.89458224      -7.81547581       4.26152637
C        3.02278006      -6.41243596       4.63688347
O        2.31487442      -5.88070023       5.48860364
H        3.42536430      -1.83562036       0.38017611
H        4.84866030      -3.26176084       1.78836636
H        1.74185418      -3.36962248       4.79391214
H        0.33232868      -1.93609166       3.37903865
H        4.04893545      -4.13304656       5.32561216
H        5.31507673      -4.08390231       4.10972664
H        5.55659122      -5.69244173       2.52235401
H        1.75719159     -10.99396771       4.23647353
H       -0.53315223      -9.82725231       4.60179669
H       -2.24855783      -9.78600253       6.35751004
H        0.44990993      -7.65112452       8.95230996
H        2.18939301      -7.73750923       7.22744413
C       -2.02339015      -8.68050069       8.79133952
C       -2.87126568      -8.65136864       9.64848269
Br      -4.24220868      -8.60426457      11.03441071
C       -0.00445707       0.01189536      -1.78238275
H       -0.66409135       0.67374010      -2.43557963
H        0.65740317      -0.63156657      -2.45157240
C       -0.90989263      -0.90692880      -0.91072765
C        0.90977584       0.90977584      -0.90977584
C       -0.00465871       1.77757030       0.00794375
H       -0.66225468       2.44313916      -0.64384735
H        0.64322798       2.43503045       0.67728295
C       -1.78241447       0.00034974      -0.00472694
H       -2.45427497      -0.65498947       0.64260836
H       -2.43311707       0.67328779      -0.65473579
C       -0.91132561       0.90220522       0.91563759
C       -0.01476271      -0.02253852       1.78660255
H       -0.67934791      -0.69751639       2.42135241
H        0.63392994       0.61504881       2.47327442
C        0.01484550      -1.77751727      -0.01636693
H        0.67870853      -2.42144646      -0.68295456
H       -0.62264859      -2.45592969       0.64226336
C        1.78714474       0.01002794       0.00389507
H        2.44202412       0.67113390       0.66197326
H        2.45385902      -0.65136977      -0.64189061
C        0.91606151      -0.90478549       0.90901405
