166
Properties=species:S:1:pos:R:3 pbc="F F F"
C        1.79161714       1.79161714      -1.79161714
C        1.22179697       2.51311940      -2.83846090
C        2.02809767       3.31607779      -3.64904857
C        3.40853157       3.40289214      -3.41451636
C        3.96574903       2.66679860      -2.35751993
C        3.16023077       1.86531882      -1.54669546
C        4.29688666       4.23909676      -4.30907171
N        4.77961032       3.48540558      -5.45270087
C        4.04517387       3.47413307      -6.62197393
N        4.35978947       2.84761573      -7.70672668
C        5.52381584       2.15463733      -7.63228678
S        6.09433617       1.27601436      -8.97344558
C        7.48314858       0.76871525      -8.12278212
C        7.52561628       1.23967778      -6.82045906
C        8.66183858       0.89644223      -5.96201554
C        9.13410363      -0.42523559      -5.90085222
C       10.23988483      -0.75358330      -5.10986642
C       10.87317797       0.23588199      -4.36310878
Br      12.36114841      -0.20622145      -3.28612273
C       10.41658224       1.55047133      -4.40908783
C        9.32222618       1.88007526      -5.21537453
C        6.36959669       2.05911775      -6.54286998
C        5.97152928       2.76801334      -5.33255687
O        6.63487597       2.75065570      -4.29864662
H        0.15386118       2.45360251      -3.03369709
H        1.56604621       3.86883471      -4.46390658
H        5.03716135       2.70539912      -2.16282833
H        3.61177358       1.30057888      -0.73510652
H        5.14275253       4.63236837      -3.73247326
H        3.73308653       5.11236674      -4.66325241
H        3.11707448       4.06848073      -6.58583175
H        8.20854744       0.14770730      -8.63137809
H        8.64592206      -1.21575389      -6.46572860
H       10.59381774      -1.78178234      -5.08291934
H       10.90166709       2.32815332      -3.82352401
H        8.99347897       2.91512320      -5.24574421
C       -1.79161714      -1.79161714      -1.79161714
C       -1.20487058      -2.72470135      -2.64380535
C       -2.01013863      -3.52834874      -3.45473667
C       -3.40694785      -3.40387241      -3.41511981
C       -3.98049008      -2.45659217      -2.55298531
C       -3.17623561      -1.65426145      -1.74174798
C       -4.28690226      -4.24196814      -4.31618474
N       -4.50515511      -3.60813132      -5.60443035
C       -3.63437867      -3.86108518      -6.64581702
N       -3.71374789      -3.36478471      -7.83559929
C       -4.76406575      -2.52612814      -8.02054606
S       -5.02511779      -1.78740016      -9.53127816
C       -6.42171204      -0.98903714      -8.96389677
C       -6.69761403      -1.25558862      -7.63255047
C       -7.87133213      -0.64914833      -6.99981589
C       -8.14950460       0.71648012      -7.17669579
C       -9.28695854       1.29459856      -6.60380797
C      -10.14760899       0.51332410      -5.83788386
Br     -11.67976258       1.29336224      -5.05464935
C       -9.88570429      -0.84114222      -5.64929489
C       -8.75769857      -1.42127490      -6.23870249
C       -5.71834473      -2.16590992      -7.08732976
C       -5.58508196      -2.73530639      -5.75171113
O       -6.36473272      -2.48305707      -4.83638850
H       -0.12362927      -2.83051330      -2.68701820
H       -1.53396874      -4.24831906      -4.11649971
H       -5.06201966      -2.32989705      -2.51347209
H       -3.63993088      -0.92434722      -1.08318088
H       -5.24745307      -4.43614881      -3.82399228
H       -3.81623385      -5.22207224      -4.47039959
H       -2.81518098      -4.55685387      -6.39935211
H       -6.97811478      -0.36183728      -9.64768077
H       -7.48337572       1.34755913      -7.76008018
H       -9.48752966       2.35226566      -6.75969075
H      -10.54954997      -1.45700120      -5.04679326
H       -8.58240184      -2.48296067      -6.08898387
C       -1.79161714       1.79161714       1.79161714
C       -3.02406791       2.23380174       1.31550762
C       -3.82936136       3.04472735       2.11913533
C       -3.40629297       3.41526740       3.40437969
C       -2.16059679       2.96314576       3.86632501
C       -1.35624105       2.15193126       3.06407273
C       -4.25272871       4.32388664       4.26843978
N       -3.96348345       5.72651020       4.02772313
C       -4.66939150       6.41254986       3.05933950
N       -4.51170886       7.65575795       2.74666506
C       -3.55301054       8.29348897       3.46424045
S       -3.21702531       9.93877900       3.18799180
C       -2.01748186       9.95650500       4.40065909
C       -1.84575809       8.72604285       5.01395218
C       -0.85562239       8.58098921       6.08368475
C        0.43650764       9.11177776       5.93445015
C        1.37605339       9.00699603       6.96522531
C        1.03402190       8.35795624       8.14823441
Br       2.30397744       8.20625016       9.53877697
C       -0.24099504       7.82298186       8.31216449
C       -1.18494337       7.94542054       7.28731206
C       -2.75831291       7.75445019       4.45882131
C       -2.95617239       6.34420452       4.77172257
O       -2.30462036       5.75144079       5.62811714
H       -3.36385754       1.95674819       0.32055504
H       -4.78643047       3.38347256       1.72888447
H       -1.80215829       3.24816694       4.85506358
H       -0.39335106       1.81488238       3.43922554
H       -4.09740621       4.08318536       5.32700259
H       -5.31417660       4.13279909       4.06172998
H       -5.42831422       5.81041433       2.53265841
H       -1.49789903      10.88279043       4.60694337
H        0.72857054       9.61085662       5.01361069
H        2.36849326       9.43175497       6.83169302
H       -0.51403758       7.30855792       9.23074892
H       -2.17749198       7.53249748       7.44435692
C        1.79161714      -1.79161714       1.79161714
C        3.17828965      -1.68048260       1.71460502
C        3.98613720      -2.49015475       2.51693209
C        3.41016720      -3.41354828       3.40222458
C        2.01173383      -3.51403190       3.46430183
C        1.20424796      -2.70437198       2.66362510
C        4.27529729      -4.32184969       4.24790815
N        4.60842616      -5.55401868       3.55527194
C        5.74874388      -5.61369154       2.77884545
N        6.15790479      -6.64248629       2.11374080
C        5.35616496      -7.73151337       2.22306163
S        5.74824833      -9.17828264       1.41726514
C        4.36909063      -9.96588206       2.03967325
C        3.59270583      -9.14820862       2.84483867
C        2.37621296      -9.68225338       3.46183001
C        1.46683866     -10.43883316       2.70404844
C        0.32069482     -10.98068155       3.29479158
C        0.06870084     -10.75789381       4.64557409
Br      -1.48357070     -11.48031866       5.44430172
C        0.95742063     -10.00762854       5.41109223
C        2.11254198      -9.48252971       4.82260427
C        4.18523431      -7.83571624       2.95063387
C        3.74899871      -6.64799352       3.67510726
O        2.72154957      -6.61480508       4.34782364
H        3.63875373      -0.97111335       1.03129368
H        5.06664431      -2.39202730       2.44011589
H        1.53933182      -4.23306900       4.13298799
H        0.12319055      -2.79987451       2.72439392
H        3.76755964      -4.54640093       5.19363359
H        5.20118792      -3.79433550       4.51318225
H        6.33597068      -4.68068178       2.75473449
H        4.20076641     -11.00344088       1.78342554
H        1.63773850     -10.61362274       1.64453553
H       -0.36636110     -11.56985867       2.69145717
H        0.76445564      -9.82337826       6.46551052
H        2.79793278      -8.91266724       5.44374636
C       -0.00445707       0.01189536      -1.78238275
H       -0.66409135       0.67374010      -2.43557963
H        0.65740317      -0.63156657      -2.45157240
C       -0.90989263      -0.90692880      -0.91072765
C        0.90977584       0.90977584      -0.90977584
C       -0.00465871       1.77757030       0.00794375
H       -0.66225468       2.44313916      -0.64384735
H        0.64322798       2.43503045       0.67728295
C       -1.78241447       0.00034974      -0.00472694
H       -2.45427497      -0.65498947       0.64260836
H       -2.43311707       0.67328779      -0.65473579
C       -0.91132561       0.90220522       0.91563759
C       -0.01476271      -0.02253852       1.78660255
H       -0.67934791      -0.69751639       2.42135241
H        0.63392994       0.61504881       2.47327442
C        0.01484550      -1.77751727      -0.01636693
H        0.67870853      -2.42144646      -0.68295456
H       -0.62264859      -2.45592969       0.64226336
C        1.78714474       0.01002794       0.00389507
H        2.44202412       0.67113390       0.66197326
H        2.45385902      -0.65136977      -0.64189061
C        0.91606151      -0.90478549       0.90901405
