178
Properties=species:S:1:pos:R:3 pbc="F F F"
C        1.79225773       1.79225773      -1.79225773
C        3.17719061       1.75711215      -1.63549941
C        3.98435098       2.56679492      -2.43379753
C        3.40384591       3.40575973      -3.38696271
C        2.01118891       3.43430791      -3.55238346
C        1.20203435       2.62502626      -2.74357472
C        1.44719439       4.34656565      -4.58570572
O        2.10510754       5.20710003      -5.14947542
O        0.11647739       4.03290281      -4.80339479
C       -0.59492866       4.81616672      -5.72605755
C       -0.64779060       6.20769350      -5.61962919
C       -1.42313935       6.93709060      -6.52247832
C       -2.15055189       6.27126061      -7.50995542
O       -2.89215277       7.04540224      -8.36468731
C       -3.60308176       6.42323706      -9.38191116
C       -3.63492194       5.09377170      -9.56304228
C       -2.89182645       4.21779351      -8.64145831
O       -2.93190488       3.00049150      -8.75931585
C       -2.10680854       4.88151758      -7.59242231
C       -1.33366546       4.13989036      -6.69571144
C       -4.30695334       7.36745837     -10.28048597
C       -5.53147620       7.04646134     -10.89019630
C       -6.18092063       7.96265869     -11.72601172
C       -5.62202766       9.21711796     -11.95631599
C       -4.41583071       9.55249265     -11.34859980
Br      -3.65801230      11.25852485     -11.64658806
C       -3.76229212       8.64012468     -10.51815845
H        3.63556568       1.10542931      -0.89520090
H        5.06512104       2.54512870      -2.31435926
H        4.04322995       4.03501875      -4.00426666
H        0.11958621       2.63965179      -2.84278401
H       -0.08768190       6.72902361      -4.84784094
H       -1.45875462       8.02147858      -6.45398181
H       -4.16990062       4.60017924     -10.36443160
H       -1.30694083       3.05526341      -6.75522189
H       -6.00807560       6.08450872     -10.71583655
H       -7.12667844       7.69612721     -12.19176790
H       -6.13344433       9.92474597     -12.60394147
H       -2.81758169       8.92428310     -10.05793012
C       -1.79225773      -1.79225773      -1.79225773
C       -2.97724805      -1.27684801      -2.31570611
C       -3.78822516      -2.08199248      -3.11472580
C       -3.40977322      -3.39759496      -3.38920017
C       -2.21269274      -3.91383544      -2.87135210
C       -1.40337592      -3.10473565      -2.06252375
C       -1.85814892      -5.32286455      -3.19845229
O       -2.63832153      -6.10593989      -3.71742156
O       -0.53806670      -5.55963000      -2.85507828
C       -0.03370426      -6.85368186      -3.05990948
C       -0.66810073      -7.98003856      -2.53139281
C       -0.09131041      -9.23905629      -2.70606286
C        1.11919726      -9.35997074      -3.38989067
O        1.63270087     -10.62385719      -3.52678047
C        2.81805028     -10.79007884      -4.23003790
C        3.51650675      -9.77545217      -4.76294662
C        3.02913696      -8.39515451      -4.60140783
O        3.66345317      -7.44708480      -5.04427085
C        1.75321645      -8.22668601      -3.89366179
C        1.18578041      -6.96098353      -3.72673322
C        3.23413950     -12.20486966      -4.37026085
C        4.58607901     -12.58602357      -4.40523687
C        4.95109199     -13.93204422      -4.52679755
C        3.97088770     -14.91808504      -4.60420896
C        2.62813867     -14.55531219      -4.55808822
Br       1.29243008     -15.88990383      -4.64962686
C        2.25953649     -13.21375980      -4.44176770
H       -3.27740658      -0.25274503      -2.10604428
H       -4.71477876      -1.68592499      -3.52390526
H       -4.05104029      -4.01827664      -4.01319842
H       -0.47818750      -3.48603305      -1.63780145
H       -1.60761932      -7.88882524      -1.99273810
H       -0.58602421     -10.12184935      -2.30883221
H        4.43101757      -9.89604726      -5.32968053
H        1.68533554      -6.07646795      -4.11241206
H        5.37843151     -11.84527465      -4.32542653
H        6.00237129     -14.20851887      -4.55506909
H        4.26161078     -15.96158457      -4.69526931
H        1.20258777     -12.95486141      -4.41235789
C       -1.79225773       1.79225773       1.79225773
C       -1.24967549       2.92771872       2.39240797
C       -2.05027655       3.73041424       3.20425264
C       -3.39012665       3.39616020       3.41028150
C       -3.93956302       2.25958828       2.79872897
C       -3.13065229       1.45061607       1.98936696
C       -5.37471843       1.95266677       3.05208056
O       -6.03734016       2.51327980       3.91106302
O       -5.80678483       0.98857381       2.15741635
C       -7.13394803       0.54456582       2.26878176
C       -7.64607661       0.05936396       3.47409153
C       -8.95153554      -0.43277461       3.51766863
C       -9.72593702      -0.45212388       2.35685101
O      -10.99934668      -0.94826882       2.46685892
C      -11.81314520      -0.95323272       1.34215398
C      -11.41558371      -0.52691953       0.13322786
C      -10.04113542      -0.02888768      -0.04482236
O       -9.63891378       0.33175314      -1.14276444
C       -9.19652924       0.01458744       1.15601467
C       -7.89180393       0.51089373       1.09923867
C      -13.18553967      -1.44660085       1.60205218
C      -13.92173946      -2.15137238       0.63481436
C      -15.21283225      -2.61650637       0.91142390
C      -15.78323401      -2.39391767       2.16208995
C      -15.06003100      -1.70815095       3.13338169
Br     -15.82330679      -1.41382135       4.83761517
C      -13.77402178      -1.23830619       2.86027543
H       -0.20688408       3.19381247       2.23549934
H       -1.63178393       4.61609192       3.67673315
H       -4.00622586       4.02907445       4.04721504
H       -3.52923393       0.55693288       1.51585519
H       -7.04360607       0.06697677       4.37859981
H       -9.36147157      -0.79997175       4.45520595
H      -12.04813509      -0.50825034      -0.74517453
H       -7.47655547       0.86670596       0.16028304
H      -13.49989270      -2.36243868      -0.34518435
H      -15.76912728      -3.15773668       0.14982607
H      -16.78498850      -2.76073248       2.37098708
H      -13.23023839      -0.70063810       3.63503124
C        1.79225773      -1.79225773       1.79225773
C        1.23274411      -2.88657626       2.45048179
C        2.03367192      -3.68888448       3.26238703
C        3.39063437      -3.39546316       3.41047083
C        3.95662776      -2.30066811       2.74058440
C        3.14770314      -1.49171142       1.93122075
C        5.40952134      -2.03630385       2.93364057
O        6.08259189      -2.59032112       3.78876997
O        5.84235288      -1.11930767       1.99111444
C        7.18704530      -0.71905555       2.04119475
C        7.75786605      -0.21134335       3.21032269
C        9.08012556       0.23543024       3.19173424
C        9.81311561       0.18759116       2.00513970
O       11.10585582       0.64177523       2.05385619
C       11.87898245       0.57940801       0.90249203
C       11.42447676       0.12632956      -0.27625516
C       10.02834495      -0.32848729      -0.38940686
O        9.57536484      -0.71201002      -1.45947238
C        9.22582791      -0.30088759       0.84041586
C        7.90369082      -0.75230151       0.84594402
C       13.27580360       1.03244049       1.09762790
C       14.00095348       1.67716963       0.08139759
C       15.31619763       2.10545503       0.29700718
C       15.92260688       1.90572322       1.53452263
C       15.21123201       1.27965400       2.55368373
Br      16.02389818       1.01695536       4.24015778
C       13.90102818       0.84660330       2.34156614
H        0.17655278      -3.12076534       2.33887777
H        1.60212110      -4.54248901       3.77999890
H        4.00689641      -4.02764403       4.04797492
H        3.55960457      -0.62944085       1.41297658
H        7.18791755      -0.16664551       4.13461959
H        9.53535114       0.61973880       4.10109342
H       12.02449524       0.05520908      -1.17457594
H        7.44349859      -1.12509926      -0.06505338
H       13.55211563       1.86939146      -0.89045451
H       15.86335150       2.60025356      -0.50188126
H       16.94310007       2.24374429       1.69588732
H       13.36695893       0.35536959       3.15304220
C       -0.00445707       0.01189536      -1.78238275
H       -0.66409135       0.67374010      -2.43557963
H        0.65740317      -0.63156657      -2.45157240
C       -0.90989263      -0.90692880      -0.91072765
C        0.90977584       0.90977584      -0.90977584
C       -0.00465871       1.77757030       0.00794375
H       -0.66225468       2.44313916      -0.64384735
H        0.64322798       2.43503045       0.67728295
C       -1.78241447       0.00034974      -0.00472694
H       -2.45427497      -0.65498947       0.64260836
H       -2.43311707       0.67328779      -0.65473579
C       -0.91132561       0.90220522       0.91563759
C       -0.01476271      -0.02253852       1.78660255
H       -0.67934791      -0.69751639       2.42135241
H        0.63392994       0.61504881       2.47327442
C        0.01484550      -1.77751727      -0.01636693
H        0.67870853      -2.42144646      -0.68295456
H       -0.62264859      -2.45592969       0.64226336
C        1.78714474       0.01002794       0.00389507
H        2.44202412       0.67113390       0.66197326
H        2.45385902      -0.65136977      -0.64189061
C        0.91606151      -0.90478549       0.90901405
