178
Properties=species:S:1:pos:R:3 pbc="F F F"
C        1.79196857       1.79196857      -1.79196857
C        1.66687324       3.17922969      -1.72448504
C        2.47199568       4.00208260      -2.52447413
C        2.30088473       5.48998939      -2.42509504
C        3.38879347       3.39515415      -3.40062450
O        4.23679436       4.22075192      -4.15361490
C        3.84504166       4.40936674      -5.47536758
O        2.91409995       3.85563425      -6.04855055
C        4.74679143       5.43977135      -6.11209153
S        6.15319597       4.64176174      -6.94067473
C        6.99501876       6.12252188      -7.49697870
C        7.91771615       6.71280546      -6.62165079
C        8.58478333       7.88034317      -6.98896811
C        8.34860827       8.46981769      -8.22578070
C        7.44251385       7.87986537      -9.10805145
C        6.75944546       6.70023276      -8.76018882
C        5.80561329       6.09660312      -9.75633971
C        3.54561022       1.99907531      -3.45622794
C        4.51930789       1.34075623      -4.38971640
C        2.71775245       1.20221016      -2.65262685
H        0.94259533       3.62501156      -1.04579576
H        3.05425683       6.03959673      -2.99545872
H        2.38805449       5.80954066      -1.38090450
H        1.31434793       5.77755041      -2.80456545
H        5.09699388       6.13963509      -5.34434290
H        4.15483840       6.01616920      -6.82916394
H        8.11804839       6.26190001      -5.65313468
H        8.86532564       9.38082477      -8.51660421
H        7.27467275       8.34776746     -10.07731714
H        4.79005847       6.07393605      -9.35034661
H        6.12191261       5.08301312     -10.02118664
H        5.77272052       6.67917503     -10.68312370
H        4.82997448       0.36376462      -4.00450524
H        5.42851584       1.93956892      -4.50478335
H        4.05676274       1.19602886      -5.37188084
H        2.80033378       0.11827260      -2.69698152
C        9.52306069       8.48415489      -6.07866761
C       10.30886798       8.98984720      -5.31629094
Br      11.57945191       9.80750889      -4.08359234
C       -1.79196857      -1.79196857      -1.79196857
C       -2.51348109      -1.21856234      -2.83854454
C       -3.32395864      -2.01535128      -3.65924249
C       -4.08826944      -1.35697536      -4.77072435
C       -3.40147207      -3.39304792      -3.39005213
O       -4.16284968      -4.19780336      -4.25050814
C       -5.42676300      -4.53014987      -3.77286311
O       -5.87911028      -4.27669593      -2.66247854
C       -6.18815633      -5.25074915      -4.85974883
S       -5.97198840      -7.04896220      -4.71468184
C       -6.92768975      -7.53721371      -6.14961588
C       -6.25959265      -7.61252551      -7.38005424
C       -6.95597877      -7.96232218      -8.53579365
C       -8.31618774      -8.24515482      -8.48286410
C       -8.98466616      -8.18647972      -7.25928479
C       -8.30224495      -7.83823035      -6.07939175
C       -9.06819146      -7.80666211      -4.78370254
C       -2.65589707      -3.98790985      -2.35710655
C       -2.73328051      -5.45702494      -2.05947506
C       -1.86354486      -3.16309106      -1.54595354
H       -2.44499508      -0.14797969      -3.02042789
H       -4.58969273      -2.07790064      -5.42171891
H       -3.40841316      -0.77115040      -5.39893610
H       -4.85154277      -0.69078022      -4.35414080
H       -5.84402040      -4.89792881      -5.83902266
H       -7.24515352      -4.98242868      -4.77258934
H       -5.19524287      -7.39976821      -7.43807199
H       -8.86407655      -8.51735065      -9.38132742
H      -10.04832371      -8.41981659      -7.23161706
H       -9.05828926      -6.79970307      -4.35634880
H       -8.63940416      -8.51676387      -4.06994433
H      -10.11645258      -8.08736151      -4.93120516
H       -1.81420582      -5.80669242      -1.57734609
H       -2.85320942      -6.04375558      -2.97590310
H       -3.57581008      -5.65929238      -1.38956998
H       -1.29800268      -3.59475657      -0.72282864
C       -6.26260013      -8.02707975      -9.79620331
C       -5.68189551      -8.08131421     -10.85179640
Br      -4.74294526      -8.16900674     -12.55860115
C       -1.79196857       1.79196857       1.79196857
C       -1.76882778       3.17632007       1.62544012
C       -2.57552491       3.99873282       2.42429468
C       -2.51569824       5.48404431       2.21622661
C       -3.38846535       3.39595199       3.40015478
O       -4.24110588       4.21501105       4.15504425
C       -3.77800346       4.52074218       5.43103034
O       -2.77518662       4.07042159       5.97267654
C       -4.70605689       5.53203071       6.06056672
S       -5.99610819       4.70374108       7.03578318
C       -6.90124316       6.16161208       7.55166410
C       -7.91814333       6.62773390       6.70629517
C       -8.63977303       7.77202280       7.04229877
C       -8.36510368       8.46067578       8.21842720
C       -7.36430001       7.99428459       9.07184607
C       -6.62462633       6.84036133       8.75487939
C       -5.56790962       6.37143408       9.71921241
C       -3.44334163       1.99992086       3.55765098
C       -4.30558353       1.34627675       4.59792023
C       -2.61606598       1.20460917       2.75191432
H       -1.12336233       3.61992190       0.87011842
H       -3.26678000       6.02179352       2.80073876
H       -2.69300768       5.72344478       1.16204720
H       -1.52900230       5.86124866       2.50621282
H       -5.15372133       6.15214305       5.27510749
H       -4.11027456       6.19457375       6.69532323
H       -8.14929661       6.09811010       5.78567637
H       -8.92413731       9.35408379       8.48453352
H       -7.16662799       8.53875728       9.99437208
H       -4.58194617       6.38682275       9.24557221
H       -5.79460700       5.36034733      10.07115804
H       -5.51535738       7.01826680      10.60139507
H       -4.57169135       0.32654774       4.30000524
H       -5.24496398       1.89100071       4.73690342
H       -3.77089238       1.30108044       5.55269962
H       -2.61960152       0.12335002       2.87263636
C       -9.67541163       8.24814841       6.16232315
C      -10.54275895       8.64690361       5.42534356
Br     -11.94518621       9.29165705       4.23370989
C        1.79196857      -1.79196857       1.79196857
C        2.36230485      -1.26018988       2.94809324
C        3.17059624      -2.05806327       3.76989290
C        3.76967831      -1.44447561       5.00181524
C        3.40166181      -3.39203313       3.39087718
O        4.15857127      -4.20583945       4.24675046
C        5.48496276      -4.38049727       3.86431596
O        6.00573146      -3.98446615       2.82808714
C        6.21426655      -5.13235236       4.95203541
S        6.18327271      -6.92059441       4.63176532
C        7.05303165      -7.45824721       6.10324048
C        6.29097682      -7.70772047       7.25347510
C        6.91462374      -8.10402672       8.43544414
C        8.29499260      -8.26157645       8.48763761
C        9.05841127      -8.02922021       7.34279919
C        8.45085400      -7.63094365       6.13806940
C        9.31975700      -7.41017097       4.92862815
C        2.80831930      -3.94846988       2.24412429
C        3.05040477      -5.37040895       1.82896679
C        2.01451294      -3.12213484       1.43594168
H        2.17693121      -0.22170873       3.21476271
H        4.27898585      -2.17778558       5.63254086
H        2.98536627      -0.98211768       5.61101571
H        4.49944624      -0.67807925       4.71893830
H        5.75458846      -4.90530910       5.92107430
H        7.24455658      -4.76635696       4.98925801
H        5.21022584      -7.59450160       7.22835563
H        8.78630565      -8.56936080       9.40708817
H       10.13779970      -8.16579061       7.39616705
H        9.25133467      -6.37183816       4.59116830
H        9.02385001      -8.08374885       4.11851351
H       10.37319128      -7.61168396       5.15014402
H        2.21396662      -5.75104618       1.23323154
H        3.14563015      -6.02891994       2.69831801
H        3.96322112      -5.43433258       1.22711873
H        1.56601928      -3.52105427       0.52851434
C        6.12389676      -8.34807171       9.61391471
C        5.46166292      -8.55245939      10.60088382
Br       4.39088679      -8.88293697      12.19672938
C       -0.00445707       0.01189536      -1.78238275
H       -0.66409135       0.67374010      -2.43557963
H        0.65740317      -0.63156657      -2.45157240
C       -0.90989263      -0.90692880      -0.91072765
C        0.90977584       0.90977584      -0.90977584
C       -0.00465871       1.77757030       0.00794375
H       -0.66225468       2.44313916      -0.64384735
H        0.64322798       2.43503045       0.67728295
C       -1.78241447       0.00034974      -0.00472694
H       -2.45427497      -0.65498947       0.64260836
H       -2.43311707       0.67328779      -0.65473579
C       -0.91132561       0.90220522       0.91563759
C       -0.01476271      -0.02253852       1.78660255
H       -0.67934791      -0.69751639       2.42135241
H        0.63392994       0.61504881       2.47327442
C        0.01484550      -1.77751727      -0.01636693
H        0.67870853      -2.42144646      -0.68295456
H       -0.62264859      -2.45592969       0.64226336
C        1.78714474       0.01002794       0.00389507
H        2.44202412       0.67113390       0.66197326
H        2.45385902      -0.65136977      -0.64189061
C        0.91606151      -0.90478549       0.90901405
