138
Properties=species:S:1:pos:R:3 pbc="F F F"
C        1.79165073       1.79165073      -1.79165073
C        1.53837021       3.15654446      -1.87905230
C        2.34488839       3.96225316      -2.68816226
C        3.40835294       3.41076033      -3.42726124
C        3.64583080       2.02980686      -3.31817330
C        2.84366223       1.22538117      -2.50482418
C        4.25990543       4.31890189      -4.33161087
C        5.76659333       4.12614732      -4.07229272
C        6.37275262       4.87107072      -3.04148387
C        7.73544704       4.73810332      -2.75572409
C        8.50879636       3.84710714      -3.49156267
C        7.93114986       3.08792021      -4.50369332
C        6.56846186       3.22476705      -4.79059279
C        3.77152309       4.38162158      -5.82691563
Cl       4.83360402       5.45828887      -6.81989556
Cl       3.67339058       2.78627605      -6.65115322
Cl       2.11212545       5.11606528      -5.92560366
H        0.71672983       3.60399998      -1.32584049
H        2.12301965       5.02689158      -2.73929722
H        4.45812350       1.55379412      -3.86193961
H        3.04836720       0.15989350      -2.43735708
H        4.07960656       5.34253591      -3.96247021
H        5.78690424       5.56854176      -2.44357601
H        8.17761121       5.33050115      -1.95993566
H        8.53002969       2.38371353      -5.07652367
H        6.16518269       2.60037697      -5.58170076
C        9.91198795       3.70534656      -3.20077528
C       11.08716090       3.58662207      -2.95724084
Br      12.98731618       3.39465462      -2.56346626
C       -1.79165073      -1.79165073      -1.79165073
C       -1.85895297      -3.16056638      -1.55444763
C       -2.66478440      -3.96693112      -2.36358830
C       -3.40532324      -3.41515017      -3.42590110
C       -3.32327832      -2.02878533      -3.64174730
C       -2.52270262      -1.22180366      -2.82936129
C       -4.26029599      -4.33317214      -4.31695005
C       -5.69865416      -3.80070917      -4.46567004
C       -6.64981718      -4.14903607      -3.48645397
C       -7.97032832      -3.69465067      -3.56429546
C       -8.35432211      -2.87405933      -4.61908472
C       -7.43047396      -2.50226559      -5.59002383
C       -6.11067596      -2.96061579      -5.51252994
C       -3.52518773      -4.84220190      -5.61267068
Cl      -4.60391171      -5.90171164      -6.60616511
Cl      -2.89459865      -3.53797007      -6.67825113
Cl      -2.10105857      -5.88136434      -5.17137148
H       -1.28850185      -3.61147152      -0.74659694
H       -2.69738103      -5.03527909      -2.15654833
H       -3.87982403      -1.55021541      -4.44381779
H       -2.47667043      -0.15202682      -3.01692054
H       -4.40280111      -5.25442482      -3.72738675
H       -6.37199720      -4.78245689      -2.64456791
H       -8.68419110      -3.98496429      -2.79889263
H       -7.72387835      -1.85397261      -6.41241593
H       -5.42711478      -2.63130993      -6.28883571
C       -9.71226312      -2.40238493      -4.70346174
C      -10.84953871      -2.00735762      -4.77412749
Br     -12.68841716      -1.36863186      -4.88838804
C       -1.79165073       1.79165073       1.79165073
C       -3.14855242       1.51136353       1.91405103
C       -3.95503080       2.32048258       2.71979045
C       -3.41584926       3.42554944       3.40497581
C       -2.04127315       3.68457769       3.26796011
C       -1.23389113       2.87241908       2.46755737
C       -4.33504400       4.31445280       4.26092139
C       -3.76033099       4.53042729       5.67427508
C       -4.04270924       3.57355459       6.66904338
C       -3.54746937       3.71205834       7.96974675
C       -2.75142578       4.80627136       8.28976903
C       -2.44441051       5.75660275       7.32175012
C       -2.94359881       5.61833852       6.02188436
C       -4.91275064       5.56631372       3.50099594
Cl      -5.96934010       6.56054764       4.58190072
Cl      -3.66785396       6.65241752       2.79054837
Cl      -5.98300291       5.04167997       2.12911150
H       -3.59008360       0.66970361       1.38678309
H       -5.01391097       2.07915560       2.79614188
H       -1.57237358       4.52090718       3.78057647
H       -0.17335954       3.09387163       2.37838661
H       -5.23012470       3.69974677       4.45474121
H       -4.65560535       2.70191069       6.44150597
H       -3.78720168       2.96249568       8.71835066
H       -1.81546633       6.60980951       7.56499105
H       -2.66428447       6.38113884       5.30183710
C       -2.23789343       4.95317225       9.62704411
C       -1.80781008       5.07620174      10.74701199
Br      -1.11240169       5.27513004      12.55790534
C        1.79165073      -1.79165073       1.79165073
C        2.10243431      -1.38616019       3.08537247
C        2.91138311      -2.19314623       3.89077448
C        3.42726431      -3.41073606       3.40837415
C        3.09486317      -3.79962142       2.09932638
C        2.28139402      -2.99614699       1.29632656
C        4.33869426      -4.26276338       4.30896054
C        3.86997332      -5.72960266       4.36545740
C        2.88813419      -6.08642313       5.31074989
C        2.41976692      -7.40068693       5.40882060
C        2.92025099      -8.37496140       4.55225378
C        3.87819011      -8.04526223       3.59931105
C        4.34822603      -6.73068562       3.50491004
C        5.87665722      -3.98740130       4.11600179
Cl       6.87294215      -5.03787528       5.20097103
Cl       6.47206617      -4.20560650       2.43314718
Cl       6.28336449      -2.28067960       4.58975029
H        1.72439357      -0.44532088       3.47685586
H        3.14007640      -1.85056978       4.89856227
H        3.46073601      -4.73347960       1.67964162
H        2.03866731      -3.31965594       0.28729454
H        4.14366590      -3.90649370       5.33445308
H        2.47243339      -5.33983642       5.98675220
H        1.66743493      -7.64867656       6.15193653
H        4.26669206      -8.80192557       2.92164925
H        5.08660579      -6.52418592       2.73646871
C        2.44068071      -9.72937438       4.64805470
C        2.03904060     -10.86369525       4.72828796
Br       1.38962252     -12.69779617       4.85801837
C       -0.00445707       0.01189536      -1.78238275
H       -0.66409135       0.67374010      -2.43557963
H        0.65740317      -0.63156657      -2.45157240
C       -0.90989263      -0.90692880      -0.91072765
C        0.90977584       0.90977584      -0.90977584
C       -0.00465871       1.77757030       0.00794375
H       -0.66225468       2.44313916      -0.64384735
H        0.64322798       2.43503045       0.67728295
C       -1.78241447       0.00034974      -0.00472694
H       -2.45427497      -0.65498947       0.64260836
H       -2.43311707       0.67328779      -0.65473579
C       -0.91132561       0.90220522       0.91563759
C       -0.01476271      -0.02253852       1.78660255
H       -0.67934791      -0.69751639       2.42135241
H        0.63392994       0.61504881       2.47327442
C        0.01484550      -1.77751727      -0.01636693
H        0.67870853      -2.42144646      -0.68295456
H       -0.62264859      -2.45592969       0.64226336
C        1.78714474       0.01002794       0.00389507
H        2.44202412       0.67113390       0.66197326
H        2.45385902      -0.65136977      -0.64189061
C        0.91606151      -0.90478549       0.90901405
