129
Properties=species:S:1:pos:R:3 pbc="F F F"
C        0.00000000       0.00000000       0.00000000
C        0.88145993       0.88145993      -0.88145993
C        1.51116378       1.99625587      -0.33132447
C        2.29841851       2.82033594      -1.14056197
C        2.45807168       2.52744806      -2.50041908
C        1.84286897       1.38779638      -3.03741160
C        1.04784622       0.56953317      -2.22942943
C        3.27235415       3.38865902      -3.40698346
O        3.79791967       2.88510148      -4.39840676
C        3.41364443       4.86462167      -3.08888346
S        4.88831984       5.19373529      -2.07237599
C        6.20813271       4.69971193      -3.22778782
C        6.34649859       5.61656570      -4.43249701
O        5.60280038       6.57031930      -4.65653267
C        7.47092617       5.35018970      -5.38637478
C        7.63191177       6.21065612      -6.48330985
C        8.68593108       6.02821439      -7.38281812
C        9.58449568       4.98268628      -7.18871233
Br      11.02703291       4.74847790      -8.38670945
C        9.43078935       4.11157896      -6.11180507
C        8.37411616       4.29215827      -5.21191667
H        1.39719426       2.23388467       0.72368571
H        2.78736415       3.67352815      -0.67859085
H        1.96987298       1.13883502      -4.08975351
H        0.56305285      -0.30270939      -2.66127562
H        2.52649930       5.21479112      -2.55102348
H        3.43375355       5.43022364      -4.02457004
H        6.05105253       3.66833021      -3.54973697
H        7.13840438       4.74849506      -2.65309351
H        6.93842811       7.03560343      -6.64089878
H        8.79636075       6.70936609      -8.22276782
H       10.12936971       3.29174680      -5.96105544
H        8.28830748       3.59227171      -4.38584977
C       -0.88145993      -0.88145993      -0.88145993
C       -0.88970996      -2.26142378      -0.68761038
C       -1.67573493      -3.07448062      -1.50910087
C       -2.45613938      -2.50642037      -2.52337907
C       -2.46199535      -1.11454084      -2.69154077
C       -1.66812513      -0.30297916      -1.87570453
C       -3.29532688      -3.33563518      -3.43703456
O       -4.30019147      -2.83846069      -3.94277575
C       -2.87464893      -4.76288528      -3.72961534
S       -3.64313070      -5.93966040      -2.57164001
C       -5.40179064      -5.73210946      -3.00173236
C       -5.76197125      -6.24791075      -4.38567930
O       -4.94282409      -6.70627431      -5.18055396
C       -7.20456958      -6.21361995      -4.78930112
C       -7.55572532      -6.71992827      -6.05022415
C       -8.89141732      -6.74462289      -6.46092337
C       -9.88285059      -6.26208742      -5.61095629
Br     -11.69293905      -6.31855098      -6.15073023
C       -9.54922997      -5.74395448      -4.36098893
C       -8.21159960      -5.71665746      -3.94993403
H       -0.28993014      -2.71523386       0.09777078
H       -1.67126991      -4.14493481      -1.32327842
H       -3.07514683      -0.65701530      -3.46629938
H       -1.66910354       0.77387529      -2.02639083
H       -1.78582060      -4.85140909      -3.65508421
H       -3.11954234      -5.00044115      -4.76856374
H       -5.68619670      -4.68289916      -2.90002384
H       -5.95834376      -6.31810305      -2.26354615
H       -6.78873622      -7.10580896      -6.72038514
H       -9.14294788      -7.14634419      -7.43920259
H      -10.32202839      -5.36269983      -3.69744374
H       -7.99237529      -5.30495028      -2.96910339
C       -0.88145993       0.88145993       0.88145993
C       -1.78417711       0.29090093       1.76366609
C       -2.61105803       1.09427119       2.55398720
C       -2.53288281       2.48934222       2.46371379
C       -1.60161331       3.07313297       1.59333067
C       -0.78173734       2.26883067       0.79624080
C       -3.40855245       3.38681734       3.27262684
O       -3.00974693       4.51510706       3.55657392
C       -4.77319340       2.88758269       3.70637346
S       -4.70894685       2.09893473       5.34654953
C       -4.23257268       3.52029787       6.38276191
C       -5.31057449       4.58588046       6.49910635
O       -6.38571336       4.54061115       5.90332784
C       -5.05019295       5.74479912       7.41249857
C       -6.05169593       6.71728351       7.55689831
C       -5.87409414       7.79915098       8.42371847
C       -4.69219947       7.91308709       9.15060773
Br      -4.45862245       9.35925700      10.34434081
C       -3.68266526       6.96289743       9.00861068
C       -3.85877003       5.88047855       8.13894252
H       -1.85353762      -0.79125390       1.84510950
H       -3.29399125       0.60357742       3.24191447
H       -1.51887091       4.15653085       1.52305975
H       -0.07452802       2.73360874       0.11348233
H       -5.15150352       2.16235389       2.97845649
H       -5.48024334       3.72155782       3.68674607
H       -3.30429062       3.95643454       6.00839454
H       -4.04847271       3.11060230       7.38091794
H       -6.98275293       6.63433585       6.99784154
H       -6.66453576       8.53841515       8.52554375
H       -2.75701822       7.05263802       9.57251572
H       -3.04886179       5.16162499       8.05594218
C        0.88145993      -0.88145993       0.88145993
C        1.13941557      -0.50202809       2.19730047
C        1.96659466      -1.29293266       2.99978910
C        2.53385661      -2.46561929       2.48646293
C        2.24519787      -2.85266560       1.17021349
C        1.42553716      -2.05599696       0.36527469
C        3.43827812      -3.33079258       3.29892592
O        3.50800171      -4.53153462       3.04189158
C        4.25919807      -2.70061242       4.40733907
S        3.38780340      -2.76140037       6.00522734
C        3.30216418      -4.56218385       6.27128443
C        4.65206478      -5.21056661       6.53292992
O        5.72083746      -4.60233104       6.50648385
C        4.67164770      -6.67177964       6.86406331
C        5.90766653      -7.27506859       7.14314262
C        5.97768568      -8.62642136       7.49285654
C        4.81000251      -9.38111898       7.56477280
Br       4.89676479     -11.20167641       8.06377905
C        3.57615780      -8.80020207       7.27781351
C        3.50544324      -7.44756986       6.92517801
H        0.70353350       0.40516259       2.60902231
H        2.13669462      -0.97737276       4.02541577
H        2.66699001      -3.76964330       0.76182820
H        1.22195574      -2.35871302      -0.65904967
H        4.47565449      -1.65598800       4.16067141
H        5.23110385      -3.19924207       4.45820131
H        2.80867960      -5.03860703       5.42183307
H        2.67884009      -4.70088750       7.16026537
H        6.82658353      -6.69225686       7.09608994
H        6.94440165      -9.07317169       7.71092133
H        2.66341534      -9.38935817       7.32939844
H        2.52559463      -7.03203848       6.70879585
