158
Properties=species:S:1:pos:R:3 pbc="F F F"
C        1.79136395       1.79136395      -1.79136395
C        2.42106781       2.90615989      -1.24122850
C        3.20832253       3.73023997      -2.05046599
C        3.36797570       3.43735209      -3.41032311
C        2.75277300       2.29770040      -3.94731563
C        1.95775024       1.47943719      -3.13933345
C        4.18225817       4.29856304      -4.31688748
O        4.70782369       3.79500551      -5.30831078
C        4.32354845       5.77452569      -3.99878748
S        5.79822386       6.10363931      -2.98228001
C        7.11803673       5.60961596      -4.13769185
C        7.25640261       6.52646972      -5.34240104
O        6.51270440       7.48022333      -5.56643669
C        8.38083019       6.26009372      -6.29627881
C        8.54181580       7.12056015      -7.39321387
C        9.59583510       6.93811842      -8.29272214
C       10.49439970       5.89259030      -8.09861636
C       10.34069337       5.02148298      -7.02170909
C        9.28402019       5.20206229      -6.12182069
H        2.30709829       3.14378869      -0.18621832
H        3.69726817       4.58343217      -1.58849487
H        2.87977701       2.04873904      -4.99965754
H        1.47295688       0.60719464      -3.57117964
H        3.43640332       6.12469515      -3.46092751
H        4.34365757       6.34012767      -4.93447406
H        6.96095655       4.57823423      -4.45964099
H        8.04830841       5.65839908      -3.56299754
H        7.84833213       7.94550746      -7.55080280
H        9.70626477       7.61927011      -9.13267185
H       11.03927373       4.20165083      -6.87095947
H        9.19821151       4.50217573      -5.29575379
C       11.59365045       5.71411745      -9.01152120
C       12.51427294       5.56464644      -9.77607900
Br      14.00284166       5.32296446     -11.01230431
C       -1.79136395      -1.79136395      -1.79136395
C       -2.41776219      -2.90849718      -1.24219682
C       -3.20498758      -3.73253353      -2.05150738
C       -3.36792228      -3.43726786      -3.41046076
C       -2.75604830      -2.29533384      -3.94640688
C       -1.96104588      -1.47709642      -3.13837859
C       -4.18229504      -4.29829566      -4.31711800
O       -4.71082640      -3.79381855      -5.30649503
C       -4.32002652      -5.77516386      -4.00167125
S       -5.79202423      -6.10922112      -2.98289783
C       -7.11510669      -5.61553086      -4.13470699
C       -7.25404749      -6.53026738      -5.34095851
O       -6.50890632      -7.48209563      -5.56836247
C       -8.38089372      -6.26423500      -6.29207400
C       -8.54235185      -7.12284301      -7.39039495
C       -9.59851567      -6.94071249      -8.28744750
C      -10.49876403      -5.89735841      -8.08948392
C      -10.34464604      -5.02808430      -7.01115511
C       -9.28583129      -5.20834789      -6.11372400
H       -2.30122613      -3.14799035      -0.18788882
H       -3.69132197      -4.58760963      -1.59026361
H       -2.88563598      -2.04453935      -4.99799826
H       -1.47884167      -0.60303802      -3.56945147
H       -3.43112212      -6.12463594      -3.46626792
H       -4.34087299      -6.33894843      -4.93843789
H       -6.96071157      -4.58320283      -4.45491737
H       -8.04413631      -5.66730127      -3.55826745
H       -7.84754840      -7.94609697      -7.55099702
H       -9.70926305      -7.62041556      -9.12852812
H      -11.04454960      -4.20994204      -6.85739238
H       -9.19976952      -4.50993141      -5.28644010
C      -11.60017785      -5.71926005      -8.99985119
C      -12.52261193      -5.57010268      -9.76228378
Br     -14.01410981      -5.32892781     -10.99507279
C       -1.79136395       1.79136395       1.79136395
C       -2.10152049       1.38057948       3.08635623
C       -2.92902622       2.17226397       3.88773831
C       -3.44434558       3.37701906       3.39428625
C       -3.10327212       3.79446691       2.10005000
C       -2.28337549       2.99733195       1.29581345
C       -4.34708841       4.24500687       4.20561342
O       -4.37247300       5.45455344       3.98411355
C       -5.22079231       3.60750955       5.26855977
S       -4.39815007       3.59283641       6.89315671
C       -4.26648646       5.38122078       7.21763730
C       -5.60368114       6.06313425       7.45845799
O       -6.68899515       5.48955828       7.38081099
C       -5.58942400       7.51357958       7.83419914
C       -6.81474917       8.14636816       8.09447249
C       -6.85477776       9.48806635       8.48383155
C       -5.66763881      10.20351238       8.61445518
C       -4.44356455       9.59338050       8.34694040
C       -4.40278886       8.25047066       7.95464366
H       -1.70627357       0.44823120       3.48260052
H       -3.14044156       1.83132068       4.89743298
H       -3.48425069       4.73605337       1.70786952
H       -2.03893871       3.32436135       0.28803110
H       -5.46091447       2.57806101       4.98305049
H       -6.17830624       4.13440445       5.30554860
H       -3.73261940       5.86748243       6.39872994
H       -3.66724811       5.47352855       8.12892836
H       -7.74893888       7.59414708       8.00155643
H       -7.81388144       9.95791889       8.68640640
H       -3.51549309      10.15199540       8.44439554
H       -3.42967435       7.81134782       7.75511886
C       -5.70363215      11.58009179       9.03556516
C       -5.73377658      12.73297704       9.38824477
Br      -5.78251757      14.59709498       9.95849787
C        1.79136395      -1.79136395       1.79136395
C        2.17500972      -1.34053121       3.05291527
C        3.00287468      -2.13337946       3.85277435
C        3.44497866      -3.37924669       3.39142554
C        3.03022624      -3.83534264       2.13222015
C        2.21006014      -3.03750767       1.32895308
C        4.34517201      -4.25113965       4.20139704
O        4.30997313      -5.46887303       4.03229382
C        5.29067211      -3.60848125       5.19770827
S        4.54142486      -3.48949175       6.85322657
C        4.34909529      -5.25516538       7.26108387
C        5.66573245      -5.98435460       7.47518633
O        6.76973641      -5.46270518       7.32692282
C        5.60704003      -7.41570916       7.91445353
C        6.81493155      -8.09013993       8.15051834
C        6.81559113      -9.41475709       8.59632745
C        5.60631304     -10.07132239       8.80797093
C        4.39840054      -9.41986561       8.56561929
C        4.39691729      -8.09412970       8.11685618
H        1.83704706      -0.37591890       3.42413933
H        3.27251309      -1.75991509       4.83676703
H        3.35373698      -4.80837948       1.76605712
H        1.90812975      -3.39555507       0.34764634
H        5.56108151      -2.60346205       4.85748242
H        6.22590224      -4.17484853       5.21750853
H        3.75986323      -5.75151991       6.48744864
H        3.78705680      -5.28272906       8.19991916
H        7.76652324      -7.58381876       7.99430039
H        7.76206789      -9.91729970       8.77883915
H        3.45284626      -9.93264643       8.72639134
H        3.43529821      -7.62151735       7.93932548
C        5.60287193     -11.42924529       9.28717187
C        5.59999000     -12.56650573       9.68850266
Br       5.59533016     -14.40535966      10.33742060
C       -0.00445707       0.01189536      -1.78238275
H       -0.66409135       0.67374010      -2.43557963
H        0.65740317      -0.63156657      -2.45157240
C       -0.90989263      -0.90692880      -0.91072765
C        0.90977584       0.90977584      -0.90977584
C       -0.00465871       1.77757030       0.00794375
H       -0.66225468       2.44313916      -0.64384735
H        0.64322798       2.43503045       0.67728295
C       -1.78241447       0.00034974      -0.00472694
H       -2.45427497      -0.65498947       0.64260836
H       -2.43311707       0.67328779      -0.65473579
C       -0.91132561       0.90220522       0.91563759
C       -0.01476271      -0.02253852       1.78660255
H       -0.67934791      -0.69751639       2.42135241
H        0.63392994       0.61504881       2.47327442
C        0.01484550      -1.77751727      -0.01636693
H        0.67870853      -2.42144646      -0.68295456
H       -0.62264859      -2.45592969       0.64226336
C        1.78714474       0.01002794       0.00389507
H        2.44202412       0.67113390       0.66197326
H        2.45385902      -0.65136977      -0.64189061
C        0.91606151      -0.90478549       0.90901405
