58
Properties=species:S:1:pos:R:3 pbc="F F F"
C        1.77477551       1.77477551      -1.77477551
N        1.59122237       3.10618134      -1.98465944
H        0.87264486       3.71386064      -1.61051819
N        2.52877770       3.60294660      -2.80773476
C        3.25686597       2.50865937      -3.06254217
N        2.82421664       1.36530134      -2.44532483
C        4.41057179       2.53632999      -3.92381869
C        5.37680040       2.55950414      -4.64513777
Br       6.93911036       2.59697478      -5.81144972
C       -1.77477551      -1.77477551      -1.77477551
N       -1.52762392      -3.07795284      -2.07648640
H       -0.75337006      -3.66091943      -1.78273419
N       -2.48368338      -3.58293177      -2.87284391
C       -3.28827509      -2.52260162      -3.01719080
N       -2.88546178      -1.39248612      -2.35689491
C       -4.48925244      -2.57125365      -3.81021438
C       -5.49507097      -2.61199972      -4.47437162
Br      -7.12139446      -2.67788269      -5.54825771
C       -1.77477551       1.77477551       1.77477551
N       -2.98175047       1.41298852       2.28732417
H       -3.48050085       0.53838203       2.17814080
N       -3.51471658       2.40239769       3.02234479
C       -2.57010588       3.34488151       2.91308012
N       -1.48512400       2.99584972       2.15386909
C       -2.69026520       4.63106743       3.54938783
C       -2.79089863       5.70824815       4.08229553
Br      -2.95361438       7.44995826       4.94396222
C        1.77477551      -1.77477551       1.77477551
N        3.04338100      -1.47506471       2.16361745
H        3.59608477      -0.65480259       1.94613632
N        3.55841573      -2.44641189       2.93463144
C        2.53966903      -3.31422252       2.97417596
N        1.42577422      -2.93606936       2.27299923
C        2.61401943      -4.55426884       3.70243219
C        2.67628789      -5.59280763       4.31234679
Br       2.77697073      -7.27203702       5.29852711
C       -0.00445707       0.01189536      -1.78238275
H       -0.66409135       0.67374010      -2.43557963
H        0.65740317      -0.63156657      -2.45157240
C       -0.90989263      -0.90692880      -0.91072765
C        0.90977584       0.90977584      -0.90977584
C       -0.00465871       1.77757030       0.00794375
H       -0.66225468       2.44313916      -0.64384735
H        0.64322798       2.43503045       0.67728295
C       -1.78241447       0.00034974      -0.00472694
H       -2.45427497      -0.65498947       0.64260836
H       -2.43311707       0.67328779      -0.65473579
C       -0.91132561       0.90220522       0.91563759
C       -0.01476271      -0.02253852       1.78660255
H       -0.67934791      -0.69751639       2.42135241
H        0.63392994       0.61504881       2.47327442
C        0.01484550      -1.77751727      -0.01636693
H        0.67870853      -2.42144646      -0.68295456
H       -0.62264859      -2.45592969       0.64226336
C        1.78714474       0.01002794       0.00389507
H        2.44202412       0.67113390       0.66197326
H        2.45385902      -0.65136977      -0.64189061
C        0.91606151      -0.90478549       0.90901405
