37
Properties=species:S:1:pos:R:3 pbc="F F F"
C        0.00000000       0.00000000       0.00000000
C        0.86487148       0.86487148      -0.86487148
N        0.68131835       2.19627732      -1.07475542
H       -0.03725917       2.80395661      -0.70061416
N        1.61887368       2.69304257      -1.89783074
C        2.34696195       1.59875534      -2.15263815
N        1.91431262       0.45539732      -1.53542081
C        3.50066776       1.62642597      -3.01391466
C        4.46689638       1.64960012      -3.73523375
Br       6.02920633       1.68707076      -4.90154570
C       -0.86487148      -0.86487148      -0.86487148
N       -0.65611896      -2.18656883      -1.10966330
H        0.08451900      -2.78574879      -0.76608181
N       -1.60100612      -2.68615899      -1.92258187
C       -2.35940709      -1.60355047      -2.13539789
N       -1.93857957      -0.46474687      -1.50180430
C       -3.53184313      -1.63843711      -2.97072815
C       -4.51375831      -1.66765468      -3.67031726
Br      -6.10143211      -1.71489702      -4.80149366
C       -0.86487148       0.86487148       0.86487148
N       -2.08533553       0.51432396       1.35269160
H       -2.59589470      -0.35044297       1.22185988
N       -2.61437698       1.50046283       2.09490718
C       -1.65354012       2.42942637       2.01538896
N       -0.56223006       2.07512190       1.26777878
C       -1.76367324       3.70725830       2.67007685
C       -1.85590973       4.77744255       3.21837796
Br      -2.00504834       6.50783996       4.10493448
C        0.86487148      -0.86487148       0.86487148
N        2.15065833      -0.58895832       1.21273444
H        2.71840320       0.21047027       0.95937868
N        2.66069419      -1.55338126       1.99567154
C        1.62127990      -2.39256508       2.08451046
N        0.49932472      -2.00324787       1.40255814
C        1.68285967      -3.61492322       2.84322550
C        1.73443274      -4.63864816       3.47864935
Br       1.81782201      -6.29392480       4.50607597
