50
Properties=species:S:1:pos:R:3 pbc="F F F"
C        1.77477551       1.77477551      -1.77477551
N        1.59122237       3.10618134      -1.98465944
H        0.87264486       3.71386064      -1.61051819
N        2.52877770       3.60294660      -2.80773476
C        3.25686597       2.50865937      -3.06254217
Br       4.76729918       2.54488579      -4.19012655
N        2.82421664       1.36530134      -2.44532483
C       -1.77477551      -1.77477551      -1.77477551
N       -1.47291023      -3.04168207      -2.16747086
H       -0.65075812      -3.59289547      -1.95337009
N       -2.44488871      -3.55721461      -2.93735574
C       -3.31529620      -2.54051570      -2.97225562
Br      -4.94085957      -2.63950584      -3.92194611
N       -2.93815084      -1.42741559      -2.26927638
C       -1.77477551       1.77477551       1.77477551
N       -2.96236131       1.39857615       2.32112569
H       -3.44413775       0.51135240       2.24153353
N       -3.50096872       2.39217884       3.04631151
C       -2.57968147       3.35199973       2.89638632
Br      -2.75586192       5.04990066       3.69654893
N       -1.50379566       3.00972910       2.12131805
C        1.77477551      -1.77477551       1.77477551
N        3.01293277      -1.44073687       2.22839352
H        3.53898118      -0.59042259       2.06761991
N        3.53682639      -2.42207223       2.98056045
C        2.55470615      -3.33117675       2.94218461
Br       2.68167520      -4.98805133       3.83258498
N        1.45509563      -2.96912759       2.21061959
C       -0.00445707       0.01189536      -1.78238275
H       -0.66409135       0.67374010      -2.43557963
H        0.65740317      -0.63156657      -2.45157240
C       -0.90989263      -0.90692880      -0.91072765
C        0.90977584       0.90977584      -0.90977584
C       -0.00465871       1.77757030       0.00794375
H       -0.66225468       2.44313916      -0.64384735
H        0.64322798       2.43503045       0.67728295
C       -1.78241447       0.00034974      -0.00472694
H       -2.45427497      -0.65498947       0.64260836
H       -2.43311707       0.67328779      -0.65473579
C       -0.91132561       0.90220522       0.91563759
C       -0.01476271      -0.02253852       1.78660255
H       -0.67934791      -0.69751639       2.42135241
H        0.63392994       0.61504881       2.47327442
C        0.01484550      -1.77751727      -0.01636693
H        0.67870853      -2.42144646      -0.68295456
H       -0.62264859      -2.45592969       0.64226336
C        1.78714474       0.01002794       0.00389507
H        2.44202412       0.67113390       0.66197326
H        2.45385902      -0.65136977      -0.64189061
C        0.91606151      -0.90478549       0.90901405
