170
Properties=species:S:1:pos:R:3 pbc="F F F"
C        1.79106805       1.79106805      -1.79106805
C        2.59317565       2.76733074      -1.21148874
C        3.40726992       3.56969123      -2.01921075
C        3.46066646       3.38607126      -3.40733575
C        2.59887722       2.43224157      -3.97099851
C        1.78046505       1.62665906      -3.17141486
N        4.21959214       4.19352049      -4.26744331
C        5.42404679       4.81548215      -3.74010582
N        6.03351570       5.56592490      -4.81340566
C        6.93016192       5.07654121      -5.71401391
S        7.45209240       3.50439942      -5.89995785
S        7.50611077       6.37836542      -6.72698120
C        6.38515749       7.51361738      -6.12242896
C        6.08340199       8.83151674      -6.65594295
H        5.54300171       9.50152181      -5.99098331
C        6.32061135       9.30992690      -8.01845885
C        6.57198963      10.67289768      -8.22534652
C        6.77436974      11.17307261      -9.51504448
C        6.72192525      10.31614602     -10.61284457
C        6.45411266       8.96491129     -10.41481202
C        6.24146206       8.46307623      -9.13032038
C        5.79972590       6.90816771      -4.90305539
O        5.21099444       7.62766000      -4.11566017
H        2.58828380       2.92388138      -0.13608527
H        3.98816149       4.34324331      -1.52697888
H        2.55771894       2.30183581      -5.05019711
H        1.13900256       0.88374981      -3.63768956
H        4.39934020       3.71379003      -5.14607942
H        6.12084611       4.05538336      -3.37047342
H        5.18824636       5.49927602      -2.91880052
H        6.61789723      11.36125006      -7.38334733
H        6.97282867      12.23193274      -9.66218823
H        6.88379096      10.70950685     -11.61272549
H        6.00234471       7.41049131      -9.00986441
C        6.38994586       8.07479948     -11.54493749
C        6.33620617       7.32933084     -12.49141758
Br       6.24931363       6.12397110     -14.02179582
C       -1.79106805      -1.79106805      -1.79106805
C       -1.29683931      -2.28053613      -2.99461970
C       -2.10238527      -3.09530766      -3.79847898
C       -3.39396268      -3.46234425      -3.39776655
C       -3.88753296      -2.90828507      -2.20629928
C       -3.08990233      -2.09156354      -1.39707310
N       -4.26037980      -4.23380702      -4.18636912
C       -3.67588593      -5.18175853      -5.12199030
N       -4.76141203      -5.86246913      -5.78896510
C       -5.37778578      -6.99420919      -5.34872207
S       -5.14658590      -7.80123580      -3.90862797
S       -6.52382914      -7.53703765      -6.55059061
C       -6.36316920      -6.14056201      -7.51747262
C       -7.19864355      -5.73623867      -8.63597945
H       -6.78625492      -4.96571190      -9.28354002
C       -8.57015731      -6.16332977      -8.91551001
C       -9.00648502      -6.21769553     -10.24605328
C      -10.31814604      -6.59260477     -10.55173602
C      -11.20971599      -6.91190615      -9.52929370
C      -10.78710859      -6.84152796      -8.20519942
C       -9.48186254      -6.45806507      -7.89493106
C       -5.16247482      -5.42857611      -7.01989807
O       -4.65036339      -4.57799479      -7.72595643
H       -0.29299787      -2.02893464      -3.32631794
H       -1.68820799      -3.42367744      -4.74649824
H       -4.90817589      -3.11184995      -1.88972602
H       -3.49557442      -1.69429963      -0.47056788
H       -4.97872750      -4.66827712      -3.61220503
H       -3.04596052      -5.90623386      -4.59450851
H       -3.06410981      -4.67050844      -5.87170465
H       -8.32807572      -5.97301747     -11.06140143
H      -10.64348885      -6.63511142     -11.58834938
H      -12.22692993      -7.20640856      -9.77268480
H       -9.19040717      -6.38077060      -6.85152266
C      -11.70502175      -7.16176330      -7.14289779
C      -12.47377402      -7.42996040      -6.25322017
Br     -13.71678142      -7.86361242      -4.81468671
C       -1.79106805       1.79106805       1.79106805
C       -3.09953280       2.06355628       1.40890606
C       -3.90986310       2.86494452       2.22136428
C       -3.44065001       3.37365326       3.43977020
C       -2.09909730       3.12999874       3.77302126
C       -1.28118113       2.33124974       2.96610810
N       -4.19230616       4.22152811       4.26672167
C       -5.64184459       4.10660293       4.23118724
N       -6.17835650       5.05713510       5.17735465
C       -6.39948848       4.82102837       6.50020020
S       -6.00517871       3.46517801       7.38609295
S       -7.19521762       6.20382880       7.21241097
C       -7.01432785       7.18115921       5.82571677
C       -7.24564861       8.61170206       5.71351100
H       -7.33212206       9.00160805       4.70177673
C       -7.25680805       9.59383467       6.79835437
C       -8.06255401      10.73357911       6.67410071
C       -8.07800973      11.70873192       7.67574518
C       -7.28317935      11.55728940       8.81044710
C       -6.46698677      10.43647580       8.93037341
C       -6.44072665       9.46563090       7.92850112
C       -6.61260883       6.27092619       4.72741397
O       -6.72095330       6.65652864       3.57683267
H       -3.49985630       1.67002496       0.47836919
H       -4.91195465       3.08148276       1.86494628
H       -1.67263603       3.56083252       4.67628332
H       -0.25233167       2.14565280       3.26245746
H       -3.83794704       4.20140057       5.21986205
H       -5.95528961       3.09188485       4.49952843
H       -6.03209840       4.33878426       3.23544023
H       -8.69196212      10.87345971       5.79707279
H       -8.71071403      12.58659780       7.56963781
H       -7.30194207      12.31636517       9.58771605
H       -5.76964608       8.61829307       8.03476128
C       -5.63655090      10.27716951      10.09596243
C       -4.94106086      10.14375049      11.07214324
Br      -3.81651229       9.92802321      12.65054505
C        1.79106805      -1.79106805       1.79106805
C        2.15296577      -1.35768944       3.06133993
C        2.95426985      -2.16965927       3.87224278
C        3.37388386      -3.43615764       3.44403198
C        3.04145829      -3.82401030       2.13664871
C        2.24209297      -3.01810089       1.31834511
N        4.21763797      -4.26809232       4.19482565
C        4.18306410      -4.15225589       5.64431477
N        5.11148003      -5.11962836       6.18173787
C        4.82024494      -6.41475087       6.48572123
S        3.40152646      -7.24521517       6.20970805
S        6.20569453      -7.15887009       7.24689277
C        7.24154003      -5.83801071       6.94165309
C        8.68634593      -5.79146390       7.09305184
H        9.13162680      -4.79914389       7.10473614
C        9.61082928      -6.92572519       7.11244262
C       10.79725368      -6.82206919       7.85091097
C       11.71926718      -7.87276546       7.87045418
C       11.46727336      -9.03683906       7.14680342
C       10.29938521      -9.13773590       6.39671486
C        9.38109636      -8.08759794       6.36616437
C        6.36837231      -4.71419888       6.52837781
O        6.81764901      -3.58206466       6.55460094
H        1.82975754      -0.38800389       3.43048902
H        3.24252351      -1.77461710       4.84124307
H        3.40185146      -4.76984729       1.73805311
H        1.98632593      -3.35628001       0.31783599
H        4.12965615      -5.23564578       3.89390773
H        3.17433339      -4.34905712       6.02331238
H        4.48663015      -3.15181841       5.96787434
H       11.01560189      -5.92279973       8.42409301
H       12.63427250      -7.78193277       8.45074437
H       12.18547213      -9.85195292       7.16859824
H        8.49445602      -8.18219464       5.74604977
C       10.03604715     -10.33400932       5.63962637
C        9.81550152     -11.33588830       5.00556477
Br       9.45889789     -12.95584189       3.98034077
C       -0.00445707       0.01189536      -1.78238275
H       -0.66409135       0.67374010      -2.43557963
H        0.65740317      -0.63156657      -2.45157240
C       -0.90989263      -0.90692880      -0.91072765
C        0.90977584       0.90977584      -0.90977584
C       -0.00465871       1.77757030       0.00794375
H       -0.66225468       2.44313916      -0.64384735
H        0.64322798       2.43503045       0.67728295
C       -1.78241447       0.00034974      -0.00472694
H       -2.45427497      -0.65498947       0.64260836
H       -2.43311707       0.67328779      -0.65473579
C       -0.91132561       0.90220522       0.91563759
C       -0.01476271      -0.02253852       1.78660255
H       -0.67934791      -0.69751639       2.42135241
H        0.63392994       0.61504881       2.47327442
C        0.01484550      -1.77751727      -0.01636693
H        0.67870853      -2.42144646      -0.68295456
H       -0.62264859      -2.45592969       0.64226336
C        1.78714474       0.01002794       0.00389507
H        2.44202412       0.67113390       0.66197326
H        2.45385902      -0.65136977      -0.64189061
C        0.91606151      -0.90478549       0.90901405
