149
Properties=species:S:1:pos:R:3 pbc="F F F"
C        0.00000000       0.00000000       0.00000000
C        0.88116402       0.88116402      -0.88116402
C        1.68327162       1.85742672      -0.30158472
C        2.49736589       2.65978721      -1.10930673
C        2.55076244       2.47616723      -2.49743173
C        1.68897319       1.52233755      -3.06109449
C        0.87056103       0.71675504      -2.26151084
N        3.30968811       3.28361647      -3.35753929
C        4.51414277       3.90557812      -2.83020180
N        5.12361167       4.65602088      -3.90350163
C        6.02025790       4.16663718      -4.80410989
S        6.54218837       2.59449540      -4.99005383
S        6.59620675       5.46846140      -5.81707717
C        5.47525347       6.60371335      -5.21252494
C        5.17349796       7.92161271      -5.74603892
H        4.63309769       8.59161779      -5.08107929
C        5.41070732       8.40002287      -7.10855482
C        5.66208561       9.76299366      -7.31544249
C        5.86446571      10.26316859      -8.60514046
C        5.81202123       9.40624200      -9.70294055
C        5.54420863       8.05500727      -9.50490800
C        5.33155804       7.55317220      -8.22041635
C        4.88982187       5.99826368      -3.99315137
O        4.30109042       6.71775597      -3.20575615
H        1.67837978       2.01397736       0.77381876
H        3.07825747       3.43333929      -0.61707485
H        1.64781492       1.39193178      -4.14029309
H        0.22909854      -0.02615422      -2.72778554
H        3.48943618       2.80388601      -4.23617539
H        5.21094208       3.14547934      -2.46056940
H        4.27834234       4.58937200      -2.00889649
H        5.70799321      10.45134604      -6.47344331
H        6.06292465      11.32202872      -8.75228421
H        5.97388693       9.79960283     -10.70282146
H        5.09244068       6.50058729      -8.09996038
C        5.48004184       7.16489546     -10.63503347
C        5.42630214       6.41942682     -11.58151355
Br       5.33940960       5.21406707     -13.11189180
C       -0.88116402      -0.88116402      -0.88116402
C       -1.53105674      -0.33118232      -1.98004400
C       -2.33247409      -1.14136931      -2.79261643
C       -2.46721550      -2.51367711      -2.54346879
C       -1.84616497      -3.03052915      -1.39571112
C       -1.04434839      -2.22771855      -0.57675996
N       -3.29581789      -3.36023630      -3.29478968
C       -3.54461089      -3.01872355      -4.68658824
N       -4.39567462      -4.04504620      -5.24241336
C       -3.96934234      -5.20290256      -5.81876007
S       -2.41361595      -5.79283892      -5.92028273
S       -5.33938357      -6.06146162      -6.48090013
C       -6.49254790      -5.01471593      -5.78422793
C       -7.93041564      -5.20996684      -5.70076711
H       -8.51743786      -4.32578422      -5.46257268
C       -8.65746355      -6.47723552      -5.78458596
C       -9.96034209      -6.47966299      -6.30051668
C      -10.69785888      -7.66530567      -6.36961020
C      -10.14219939      -8.86095399      -5.91805039
C       -8.85562472      -8.86101583      -5.38748336
C       -8.11963012      -7.67828642      -5.30723006
C       -5.74183374      -3.82748093      -5.31192226
O       -6.35687227      -2.80601725      -5.06171303
H       -1.43355203       0.72621294      -2.21119928
H       -2.84996908      -0.66146466      -3.61723787
H       -1.97807027      -4.07607620      -1.12589332
H       -0.56138752      -2.66317322       0.29383088
H       -3.00678883      -4.33002432      -3.19268443
H       -2.60395022      -2.96748898      -5.24555162
H       -4.05218363      -2.05287218      -4.77155501
H      -10.41517648      -5.55814956      -6.65945652
H      -11.70631461      -7.65494865      -6.77597431
H      -10.71839507      -9.78027004      -5.97764612
H       -7.13087287      -7.70359506      -4.85852043
C       -8.27789787     -10.09100108      -4.91107181
C       -7.79405164     -11.12111374      -4.51207714
Br      -7.01171321     -12.78671877      -3.86693649
C       -0.88116402       0.88116402       0.88116402
C       -1.77405920       0.29643663       1.77178724
C       -2.57607779       1.10484339       2.58553865
C       -2.47322564       2.50182844       2.54930732
C       -1.60510646       3.06585013       1.60144864
C       -0.80060837       2.26547749       0.78274105
N       -3.28657177       3.35885010       3.30542201
C       -3.80676179       2.87031368       4.57284722
N       -4.58451342       3.93407109       5.16454968
C       -4.10007563       4.91299342       5.97793593
S       -2.51491899       5.21841928       6.39339933
S       -5.42561541       5.88345530       6.57267461
C       -6.58413993       5.14964577       5.55770606
C       -7.94657750       5.58879204       5.30578006
H       -8.60500839       4.85585293       4.84493344
C       -8.49158459       6.93385433       5.49384610
C       -9.84811373       7.07807466       5.81433337
C      -10.41241746       8.34724982       5.97310748
C       -9.62713415       9.48660538       5.80746424
C       -8.28376044       9.34956229       5.47080117
C       -7.71869453       8.08505429       5.30139778
C       -5.94077925       3.93355705       5.00690062
O       -6.64392550       3.07290618       4.50777085
H       -1.86592779      -0.78445363       1.83706422
H       -3.28468530       0.60536941       3.23861690
H       -1.54212367       4.14628629       1.49162983
H       -0.12440750       2.73372202       0.07260034
H       -2.85095154       4.27238053       3.40616551
H       -2.98772312       2.58663656       5.24263114
H       -4.45235448       1.99902917       4.42522718
H      -10.48108976       6.20278588       5.94890691
H      -11.46528043       8.44594477       6.22601238
H      -10.06991346      10.47055715       5.93584061
H       -6.67598201       8.01016601       5.00684034
C       -7.46800370      10.52230651       5.28966055
C       -6.78480742      11.50447980       5.13795529
Br      -5.68013683      13.09257093       4.89266071
C        0.88116402      -0.88116402       0.88116402
C        1.61226410      -1.91766224       0.31235672
C        2.42658063      -2.72032580       1.11955340
C        2.55158741      -2.47865609       2.49411790
C        1.75921227      -1.46250632       3.05068664
C        0.94110109      -0.65607233       2.25165348
N        3.31302603      -3.28157075       3.35624708
C        4.46359438      -3.98064473       2.80568357
N        5.08815518      -4.71046457       3.88451443
C        6.04576005      -4.22370030       4.72154463
S        6.64410488      -2.67051142       4.81212131
S        6.60992331      -5.50489861       5.76692340
C        5.41372089      -6.61295981       5.26481106
C        5.07925361      -7.89096894       5.87092705
H        4.48006459      -8.56399667       5.26173350
C        5.35749844      -8.31954873       7.24223785
C        5.55809323      -9.68223031       7.50019822
C        5.79728482     -10.13412661       8.80136332
C        5.83287241      -9.22838341       9.85994795
C        5.61576795      -7.87627219       9.61208376
C        5.36663814      -7.42201975       8.31648871
C        4.80009142      -6.03534862       4.04579689
O        4.14488313      -6.76091588       3.31880353
H        1.55119419      -2.12082909      -0.75348490
H        2.94980544      -3.54054571       0.63832046
H        1.77335248      -1.28315316       4.12353415
H        0.35489323       0.13520637       2.71104300
H        3.55374641      -2.77252329       4.20322788
H        5.17536642      -3.27024457       2.37137983
H        4.16061597      -4.68825960       2.02773526
H        5.53510612     -10.40822242       6.68945400
H        5.95566190     -11.19350300       8.98807266
H        6.02302259      -9.58453106      10.86875757
H        5.16863344      -6.36587089       8.15848403
C        5.64259460      -6.93545554      10.70192062
C        5.66506193      -6.14752160      11.61465898
Br       5.70138969      -4.87349906      13.09047972
