129
Properties=species:S:1:pos:R:3 pbc="F F F"
C        0.00000000       0.00000000       0.00000000
O        1.95009568       4.85136685      -4.26071356
C        3.07201787       4.39980381      -4.04233589
N        3.38442174       3.31973434      -3.23427016
C        2.49843035       2.52429694      -2.47835716
C        1.10935490       2.66968204      -2.49170664
C        0.30134108       1.85009130      -1.69409993
C        0.88102405       0.88102405      -0.88102405
C        2.26272333       0.71510357      -0.86548093
C        3.06690884       1.53285882      -1.66622271
C        4.27846971       5.00354904      -4.72156098
C        4.35500397       6.51369941      -4.67505095
O        5.42263276       7.05424864      -4.39339987
N        3.19524749       7.15448491      -5.06305068
C        2.99644912       8.53387490      -5.27410342
C        3.99499721       9.50007964      -5.13259258
C        3.72062374      10.84962085      -5.38497804
C        2.44446095      11.23596727      -5.78393371
Br       2.07922797      13.05578791      -6.13735648
C        1.43735678      10.28647506      -5.92648019
C        1.71358996       8.93987751      -5.66738472
H        4.36546793       3.08384112      -3.13765635
H        0.61670710       3.41147676      -3.11144163
H       -0.77759641       1.98330890      -1.71663273
H        2.72328397      -0.04065517      -0.23413141
H        4.14388020       1.38623310      -1.63262924
H        4.26661309       4.69086079      -5.77226737
H        5.20098969       4.61249131      -4.27695262
H        2.36774247       6.56398386      -5.15152667
H        5.00341884       9.23924027      -4.82810133
H        4.51325495      11.58397622      -5.26847806
H        0.43858146      10.57888436      -6.23925654
H        0.91377751       8.21274915      -5.78793749
O       -5.45654011      -2.86158084      -2.74405512
C       -4.63102068      -3.42026648      -3.46287041
N       -3.25446984      -3.28612324      -3.39783316
C       -2.50834332      -2.47440172      -2.51833942
C       -3.06846672      -1.70998673      -1.49229013
C       -2.25676320      -0.91385228      -0.67491684
C       -0.88102405      -0.88102405      -0.88102405
C       -0.30584156      -1.64631102      -1.89115526
C       -1.11894721      -2.44349350      -2.70354966
C       -5.08426187      -4.40003580      -4.51928206
C       -6.22957286      -3.92706514      -5.38711632
O       -6.17229409      -4.09427188      -6.60371530
N       -7.30565130      -3.42292760      -4.68420417
C       -8.56963253      -3.05030568      -5.18448923
C       -8.94420951      -3.15777023      -6.52568969
C      -10.23012844      -2.78757171      -6.93752248
C      -11.14752799      -2.31125761      -6.00557633
Br     -12.88692607      -1.82489574      -6.56055054
C      -10.78940587      -2.19484889      -4.66605727
C       -9.50170544      -2.55979031      -4.25935644
H       -2.70780180      -3.79909416      -4.08006945
H       -4.13559596      -1.70734337      -1.29668615
H       -2.71425534      -0.32332275       0.11523288
H        0.76830158      -1.62733517      -2.05772662
H       -0.64566973      -3.02847645      -3.48859635
H       -5.39230463      -5.32309673      -4.01433988
H       -4.25073107      -4.65612245      -5.18358010
H       -7.14629859      -3.24479913      -3.69215528
H       -8.26007240      -3.52863955      -7.28204849
H      -10.49949822      -2.87986220      -7.98634881
H      -11.49980677      -1.82563401      -3.93128158
H       -9.24244162      -2.46465472      -3.20736781
O       -3.86872808       2.07153394       5.12191406
C       -3.86443388       3.13818094       4.51154274
N       -3.24469936       3.39369485       3.30003202
C       -2.47555904       2.50445357       2.52107184
C       -2.27850117       1.15769854       2.83454388
C       -1.48212242       0.34681608       2.01659381
C       -0.88102405       0.88102405       0.88102405
C       -1.07739793       2.21794960       0.54796030
C       -1.87655041       3.02443411       1.36500584
C       -4.62589839       4.32514123       5.05254011
C       -4.40735872       4.61531363       6.52108198
O       -4.21284109       5.77378480       6.88365537
N       -4.55014172       3.51710221       7.34553915
C       -4.56247655       3.48724976       8.75470113
C       -4.44442143       4.61979485       9.56345315
C       -4.49053234       4.50650429      10.95818601
C       -4.65885623       3.25728555      11.54822014
Br      -4.73455770       3.10759751      13.43021714
C       -4.77471339       2.11852143      10.75707721
C       -4.72190761       2.23486286       9.36408173
H       -3.31436192       4.33697929       2.93562420
H       -2.72923900       0.70102066       3.70936583
H       -1.33855216      -0.69791490       2.28170796
H       -0.61249354       2.64256534      -0.33829868
H       -2.01060559       4.06671785       1.08541909
H       -5.69494620       4.14252436       4.89227068
H       -4.36426282       5.23166672       4.49450408
H       -4.59414049       2.61118327       6.87792924
H       -4.31659134       5.61177867       9.14239042
H       -4.39668267       5.40148825      11.56753831
H       -4.90818890       1.13938775      11.20914571
H       -4.81786752       1.33333001       8.76326663
O        3.37127477      -5.35406565       2.33683566
C        3.75082573      -4.56456141       3.19877042
N        3.38487174      -3.23461636       3.31893814
C        2.52435340      -2.49830048       2.47843056
C        1.82816488      -3.04470689       1.39787182
C        1.00808519      -2.23781758       0.59962955
C        0.88102405      -0.88102405       0.88102405
C        1.55828715      -0.32353884       1.96148184
C        2.37376300      -1.13296659       2.75926077
C        4.67742940      -5.02849162       4.29765872
C        5.86831500      -5.83928267       3.83615665
O        6.98060839      -5.59199329       4.29767958
N        5.55347789      -6.87730207       2.98200312
C        6.40373529      -7.89542221       2.50526993
C        7.74950318      -8.02103708       2.85712917
C        8.52035878      -9.07754597       2.35731789
C        7.94418499     -10.01502240       1.50515454
Br       8.98213884     -11.44795531       0.84227821
C        6.60567054      -9.90260584       1.14203565
C        5.84027909      -8.84215995       1.63841316
H        3.80514576      -2.70658512       4.07523453
H        1.89809154      -4.09724586       1.14428809
H        0.47857690      -2.68304134      -0.23927304
H        1.46318323       0.73529868       2.18887565
H        2.89569445      -0.67236568       3.59468240
H        4.09394266      -5.63942727       4.99637132
H        5.06107763      -4.16931443       4.86004156
H        4.60512218      -6.87280430       2.60532651
H        8.23459662      -7.31393510       3.52222871
H        9.56553637      -9.15533685       2.64483601
H        6.14709508     -10.63097277       0.47865450
H        4.79505659      -8.77391204       1.34549553
