137
Properties=species:S:1:pos:R:3 pbc="F F F"
C        0.00000000       0.00000000       0.00000000
O        1.95009568       4.85136685      -4.26071356
C        3.07201787       4.39980381      -4.04233589
N        3.38442174       3.31973434      -3.23427016
C        2.49843035       2.52429694      -2.47835716
C        1.10935490       2.66968204      -2.49170664
C        0.30134108       1.85009130      -1.69409993
C        0.88102405       0.88102405      -0.88102405
C        2.26272333       0.71510357      -0.86548093
C        3.06690884       1.53285882      -1.66622271
C        4.27846971       5.00354904      -4.72156098
C        4.35500397       6.51369941      -4.67505095
O        5.42263276       7.05424864      -4.39339987
N        3.19524749       7.15448491      -5.06305068
C        2.99644912       8.53387490      -5.27410342
C        3.99499721       9.50007964      -5.13259258
C        3.72062374      10.84962085      -5.38497804
C        2.44446095      11.23596727      -5.78393371
C        1.43735678      10.28647506      -5.92648019
C        1.71358996       8.93987751      -5.66738472
H        4.36546793       3.08384112      -3.13765635
H        0.61670710       3.41147676      -3.11144163
H       -0.77759641       1.98330890      -1.71663273
H        2.72328397      -0.04065517      -0.23413141
H        4.14388020       1.38623310      -1.63262924
H        4.26661309       4.69086079      -5.77226737
H        5.20098969       4.61249131      -4.27695262
H        2.36774247       6.56398386      -5.15152667
H        5.00341884       9.23924027      -4.82810133
H        4.51325495      11.58397622      -5.26847806
H        0.43858146      10.57888436      -6.23925654
H        0.91377751       8.21274915      -5.78793749
C        2.16610831      12.62289532      -6.05328550
C        1.93298798      13.78444757      -6.27886763
Br       1.55605213      15.66257931      -6.64361485
O       -5.44564924      -2.98788930      -2.62863753
C       -4.63048533      -3.47485634      -3.40881590
N       -3.25974773      -3.27966729      -3.39901122
C       -2.51032254      -2.47402690      -2.51673501
C       -3.05547898      -1.78307098      -1.43219363
C       -2.24281698      -0.98715679      -0.61555854
C       -0.88102405      -0.88102405      -0.88102405
C       -0.32005837      -1.57285704      -1.95039242
C       -1.13384056      -2.37010441      -2.76204539
C       -5.08839956      -4.42664393      -4.48853625
C       -6.29289467      -3.96941328      -5.28144638
O       -6.28504401      -4.07937294      -6.50586432
N       -7.35640611      -3.54786188      -4.50851509
C       -8.65770308      -3.21268991      -4.93403445
C       -9.08928446      -3.27762677      -6.26075821
C      -10.40823859      -2.94983917      -6.59714488
C      -11.30147587      -2.55885843      -5.60402763
C      -10.88679217      -2.48568882      -4.27783104
C       -9.56653402      -2.80791841      -3.94639976
H       -2.72318508      -3.73565533      -4.12812500
H       -4.11137619      -1.83893943      -1.18930986
H       -2.68881171      -0.45442111       0.22088761
H        0.74322905      -1.49638123      -2.16360803
H       -0.67210253      -2.89679605      -3.59384395
H       -5.33109921      -5.38465959      -4.01398245
H       -4.27618486      -4.61369872      -5.20055004
H       -7.15904009      -3.40688745      -3.51732545
H       -8.42533121      -3.58209180      -7.06333743
H      -10.72186737      -3.00775674      -7.63608513
H      -11.57788772      -2.18313813      -3.49569651
H       -9.26296941      -2.74777412      -2.90372063
C      -12.66060445      -2.23195965      -5.94972504
C      -13.79887464      -1.95818193      -6.23924662
Br     -15.63936125      -1.51550651      -6.70737853
O       -3.85606805       2.07677485       5.12933317
C       -3.85873543       3.14088372       4.51453842
N       -3.24508971       3.39392233       3.29941421
C       -2.47549074       2.50464228       2.52095143
C       -2.27153946       1.16002951       2.83917462
C       -1.47518972       0.34905762       2.02128497
C       -0.88102405       0.88102405       0.88102405
C       -1.08433159       2.21572890       0.54324734
C       -1.88344048       3.02228767       1.36026222
C       -4.62288166       4.32692012       5.05377796
C       -4.39947210       4.62409760       6.52018463
O       -4.20827291       5.78486153       6.87714683
N       -4.53427356       3.52874152       7.34976800
C       -4.54064991       3.50469694       8.75908059
C       -4.42395688       4.64107359       9.56263897
C       -4.46382157       4.53339252      10.95800855
C       -4.62450624       3.28595139      11.55390430
C       -4.73890260       2.14343811      10.76797132
C       -4.69234864       2.25420495       9.37429861
H       -3.32018137       4.33538713       2.93139691
H       -2.71674903       0.70513033       3.71774613
H       -1.32618097      -0.69395879       2.29012304
H       -0.62486976       2.63857760      -0.34668715
H       -2.02298406       4.06283610       1.07692237
H       -5.69181540       4.13921405       4.89871178
H       -4.36732973       5.23219325       4.49091064
H       -4.57644131       2.62071198       6.88609971
H       -4.30199631       5.63181906       9.13694506
H       -4.37117148       5.43128294      11.56325482
H       -4.86643354       1.16564810      11.22464072
H       -4.78704636       1.34979251       8.77762529
C       -4.67578654       3.17759670      12.98890590
C       -4.71873379       3.08684966      14.19071974
Br      -4.78817585       2.94011936      16.13395107
O        2.40396727      -5.38526843       3.27294038
C        3.30218944      -4.61263060       3.59933752
N        3.39971465      -3.27216129       3.26655030
C        2.51295631      -2.51434806       2.47378008
C        1.31746203      -3.00733240       1.94594915
C        0.50258027      -2.19270905       1.15024299
C        0.88102405      -0.88102405       0.88102405
C        2.06304812      -0.37074687       1.40951284
C        2.87302814      -1.18584569       2.20711653
C        4.42652104      -5.08838685       4.48867184
C        5.05319885      -6.40496417       4.08559131
O        6.27785524      -6.51237939       4.08004664
N        4.14580311      -7.41823658       3.84874338
C        4.41213193      -8.78173210       3.61056340
C        5.69271521      -9.33901813       3.59593609
C        5.86988420     -10.71018760       3.37515083
C        4.76335069     -11.52943272       3.17157851
C        3.48087801     -10.98970031       3.17973370
C        3.30816868      -9.61826270       3.39442082
H        4.21833116      -2.77309647       3.59553778
H        0.98462740      -4.02303554       2.13196254
H       -0.42179233      -2.59820633       0.74593121
H        2.36507479       0.65340127       1.20508668
H        3.79363999      -0.76484122       2.60426132
H        4.03210895      -5.19123790       5.50639440
H        5.22624417      -4.33952549       4.52466396
H        3.16800755      -7.13433857       3.78090688
H        6.58039794      -8.73537286       3.75498963
H        6.87567498     -11.12183178       3.36820248
H        2.61112058     -11.62214350       3.02345828
H        2.29751275      -9.21640986       3.40054155
C        4.94610328     -12.94126211       2.95492376
C        5.09915857     -14.12366922       2.77347540
Br       5.34663603     -16.03552151       2.48008875
