174
Properties=species:S:1:pos:R:3 pbc="F F F"
O        6.53468825       8.21414305      -6.39774181
C        6.15646888       7.83159680      -7.50206232
C        6.29884508       6.36973253      -7.90877983
S        5.17946251       5.30499855      -6.94089103
C        5.99819338       5.44030573      -5.30899712
C        5.53929118       4.34518003      -4.35381489
O        6.36053743       3.71201177      -3.69487705
N        4.16182500       4.22658563      -4.27448272
C        3.41539422       3.39593597      -3.41763944
C        3.97566588       2.62956292      -2.39290030
C        3.16616563       1.82732717      -1.58055494
C        1.79108994       1.79108994      -1.79108994
C        1.21636600       2.55582718      -2.80205573
C        2.02802365       3.35830576      -3.61035943
N        5.58613244       8.62421609      -8.48554978
C        5.28443436      10.00046608      -8.40318796
C        5.39667508      10.75673847      -7.23384540
C        5.07356843      12.11860658      -7.23241892
C        4.64052611      12.73043239      -8.40458101
C        4.51994048      11.99102972      -9.57739194
C        4.83631371      10.62861737      -9.57347293
H        7.34004944       6.06000852      -7.77431976
H        6.05796822       6.23528204      -8.96761979
H        5.76540149       6.40239881      -4.84527124
H        7.08081623       5.34652553      -5.43898902
H        3.64373281       4.74358120      -4.97761327
H        5.04280346       2.63657446      -2.19280283
H        3.62476304       1.23835097      -0.79049952
H        0.14319624       2.53460239      -2.97150488
H        1.55933704       3.94699534      -4.39497963
H        5.38969702       8.18670181      -9.37733928
H        5.72222990      10.31785535      -6.29590953
H        5.16563615      12.68593274      -6.30967104
H        4.18385535      12.46247558     -10.49723944
H        4.73678990      10.07345695     -10.50269605
C        4.31416608      14.13296177      -8.40389949
C        4.04083955      15.30758012      -8.40332873
Br       3.59889368      17.20683866      -8.40240585
O       -6.06024266      -8.08176180      -7.00456865
C       -6.20676798      -7.32352827      -7.95983174
C       -6.84950507      -5.95424075      -7.77361162
S       -5.76976726      -4.84563492      -6.80994991
C       -5.89629795      -5.67066964      -5.18052864
C       -5.42351382      -4.76476061      -4.05001166
O       -6.09092769      -4.65184286      -3.02465570
N       -4.18518710      -4.19156016      -4.28614609
C       -3.42112377      -3.39730267      -3.41054318
C       -3.75812229      -3.16505999      -2.07494683
C       -2.94577412      -2.36282314      -1.26545047
C       -1.79108994      -1.79108994      -1.79108994
C       -1.43662743      -2.02024919      -3.11737228
C       -2.24942916      -2.82449208      -3.92276760
N       -5.83947714      -7.58631592      -9.27010525
C       -5.18955811      -8.73994628      -9.75858400
C       -4.68574189      -9.75726589      -8.94425118
C       -4.04878047     -10.86985066      -9.50596281
C       -3.91763010     -10.97046291     -10.88744650
C       -4.41087707      -9.96450687     -11.71297820
C       -5.04002511      -8.85040986     -11.14796903
H       -7.81818198      -6.07721311      -7.27898263
H       -7.04070017      -5.47946371      -8.74070617
H       -5.27879775      -6.57244601      -5.16182779
H       -6.94089409      -5.93563541      -4.98980129
H       -3.83584221      -4.29573092      -5.23335415
H       -4.64661276      -3.59906117      -1.62650682
H       -3.22910332      -2.19487319      -0.22963703
H       -0.53548566      -1.57909394      -3.53472391
H       -1.95516770      -2.98999923      -4.95614508
H       -6.08857423      -6.89671085      -9.96845303
H       -4.75895658      -9.71499823      -7.86203997
H       -3.66183356     -11.64734033      -8.85206603
H       -4.31352986     -10.03696651     -12.79307400
H       -5.41945858      -8.07959898     -11.81388534
C       -3.26768647     -12.11832458     -11.46501629
C       -2.72335869     -13.07965873     -11.94873099
Br      -1.84322669     -14.63405474     -12.73085675
O       -7.72859133       5.88644746       7.53153431
C       -8.18786469       6.63210797       6.67015534
C       -7.26553229       7.49479170       5.81703345
S       -6.27344006       6.47239024       4.67952179
C       -5.18494668       5.65727367       5.90527589
C       -3.96289271       5.02891459       5.24647879
O       -2.84352391       5.20105385       5.72284849
N       -4.27474702       4.22612336       4.16202297
C       -3.40193507       3.42340338       3.40363118
C       -2.05888149       3.21377180       3.72547581
C       -1.25326792       2.39976195       2.92101787
C       -1.79108994       1.79108994       1.79108994
C       -3.12978002       1.98262760       1.46184129
C       -3.93258584       2.79472214       2.26938086
N       -9.53065917       6.79628854       6.36895060
C      -10.62377619       6.11659089       6.94772131
C      -10.49682977       5.04968131       7.84074788
C      -11.63189898       4.42378448       8.36891048
C      -12.90029219       4.86729918       8.00794814
C      -13.04468396       5.92663235       7.11704582
C      -11.90835446       6.54483979       6.58520975
H       -6.61717145       8.08389550       6.47331077
H       -7.84232140       8.20346255       5.21508610
H       -5.72587339       4.86219932       6.42499882
H       -4.83662821       6.40007259       6.62962998
H       -5.23292406       4.29703500       3.83496822
H       -1.60469837       3.66518674       4.60229564
H       -0.21058669       2.25263584       3.19039100
H       -3.55777667       1.50919552       0.58233132
H       -4.97523904       2.93210429       1.99396867
H       -9.76884278       7.50195048       5.68294484
H       -9.52706198       4.66647314       8.14245965
H      -11.50828372       3.59340379       9.05955241
H      -14.03226223       6.27961506       6.83169307
H      -12.04727058       7.37194995       5.89372238
C      -14.06762469       4.22693715       8.55646551
C      -15.04526566       3.69063394       9.01584881
Br     -16.62602842       2.82347703       9.75863274
O        7.46402837      -5.89584599       7.78669875
C        8.14842186      -6.42629594       6.91541020
C        7.49902331      -7.26061623       5.81771789
S        6.52193689      -6.21587953       4.68753567
C        5.16158095      -5.76081478       5.82510050
C        3.95674630      -5.20847793       5.07306187
O        2.82439655      -5.60459155       5.33843815
N        4.28240404      -4.20936327       4.17112604
C        3.40510003      -3.42319888       3.40067072
C        2.01464241      -3.45196301       3.53152368
C        1.20754334      -2.63832088       2.72818352
C        1.79108994      -1.79108994       1.79108994
C        3.17542616      -1.74405332       1.65476944
C        3.97905674      -2.55669209       2.46094002
N        9.52862626      -6.35638189       6.81089016
C       10.41134877      -5.63436648       7.64237314
C        9.99683845      -4.74949905       8.64092145
C       10.93599033      -4.06638214       9.42222147
C       12.29575416      -4.27032830       9.20945705
C       12.72583795      -5.14574685       8.21677734
C       11.78473739      -5.82093424       7.43273237
H        6.86876879      -8.02883776       6.27677118
H        8.25716945      -7.77992772       5.22377288
H        5.49406337      -4.99180905       6.52719912
H        4.83980351      -6.64926164       6.37726563
H        5.27522763      -4.09651452       3.99318512
H        1.52248046      -4.09397478       4.25572550
H        0.12787471      -2.67901545       2.84672338
H        3.63886190      -1.08364927       0.92679234
H        5.05797892      -2.50551669       2.33781639
H        9.96659334      -6.90555844       6.08158633
H        8.94673035      -4.55449835       8.83476608
H       10.58970894      -3.38036736      10.19116362
H       13.78635575      -5.31135039       8.04586423
H       12.14558044      -6.50153343       6.66582903
C       13.26139917      -3.57189157      10.01773661
C       14.07012686      -2.98695080      10.69467074
Br      15.37777114      -2.04115106      11.78921598
C       -0.00445707       0.01189536      -1.78238275
H       -0.66409135       0.67374010      -2.43557963
H        0.65740317      -0.63156657      -2.45157240
C       -0.90989263      -0.90692880      -0.91072765
C        0.90977584       0.90977584      -0.90977584
C       -0.00465871       1.77757030       0.00794375
H       -0.66225468       2.44313916      -0.64384735
H        0.64322798       2.43503045       0.67728295
C       -1.78241447       0.00034974      -0.00472694
H       -2.45427497      -0.65498947       0.64260836
H       -2.43311707       0.67328779      -0.65473579
C       -0.91132561       0.90220522       0.91563759
C       -0.01476271      -0.02253852       1.78660255
H       -0.67934791      -0.69751639       2.42135241
H        0.63392994       0.61504881       2.47327442
C        0.01484550      -1.77751727      -0.01636693
H        0.67870853      -2.42144646      -0.68295456
H       -0.62264859      -2.45592969       0.64226336
C        1.78714474       0.01002794       0.00389507
H        2.44202412       0.67113390       0.66197326
H        2.45385902      -0.65136977      -0.64189061
C        0.91606151      -0.90478549       0.90901405
