129
Properties=species:S:1:pos:R:3 pbc="F F F"
C        0.00000000       0.00000000       0.00000000
C        0.85440435       0.85440435      -0.85440435
C        1.91231224       0.32018898      -1.37499100
C        2.98509111      -0.22146381      -1.88382646
C        3.79097507       0.30991681      -3.03763989
N        4.16707292       1.72992175      -2.94509759
C        4.93319835       2.04921118      -1.72704390
C        6.24503580       1.33283961      -1.55232548
C        6.52744231       0.50269947      -0.58929914
C        6.82570148      -0.32053755       0.36518939
Br       8.31831034      -1.37949419       0.15203473
C        4.88671727       2.18738853      -4.14940682
C        4.09408618       2.10496741      -5.43769618
C        4.58721212       1.36216439      -6.52202812
C        3.87690428       1.29880183      -7.72152986
C        2.66850573       1.97938879      -7.85202868
C        2.16926618       2.72320237      -6.78375966
C        2.87843467       2.78787632      -5.58257368
H        0.63775150       1.91370052      -0.87001702
H        3.23467825      -1.22918572      -1.56421153
H        3.17799781       0.14116174      -3.93170545
H        4.68219673      -0.31924021      -3.15991846
H        4.30389894       1.89019327      -0.84257001
H        5.13756390       3.12813701      -1.71349798
H        7.03574111       1.57313649      -2.25601031
H        6.32422492      -0.35707523       1.32286589
H        5.82555759       1.63242203      -4.27091474
H        5.16704130       3.24311011      -4.03092124
H        5.53040926       0.82685887      -6.43966973
H        4.26770299       0.71953610      -8.55400273
H        2.11564814       1.93002307      -8.78635398
H        1.22603197       3.25321415      -6.88577778
H        2.47894538       3.36786773      -4.75340203
C       -0.85440435      -0.85440435      -0.85440435
C       -0.31101843      -1.40333166      -1.89314213
C        0.24027731      -1.94091097      -2.94682010
C       -0.29745763      -3.09947027      -3.74160387
N       -1.70868876      -2.98860755      -4.14479594
C       -1.99238211      -1.77909224      -4.93797908
C       -1.24988164      -1.64073273      -6.23958652
C       -0.39766374      -0.69778766      -6.52398953
C        0.44777993       0.23645893      -6.82421340
Br       1.52896838      -0.02224835      -8.29350146
C       -2.17496878      -4.19740098      -4.85114285
C       -2.12980227      -5.47246126      -4.03448624
C       -1.39804189      -6.57847198      -4.49489076
C       -1.36887209      -7.76591853      -3.76244535
C       -2.07297275      -7.86256878      -2.56438166
C       -2.80614086      -6.77248786      -2.09759949
C       -2.83661145      -5.58331390      -2.82895933
H       -1.91747728      -0.84736766      -0.65662410
H        1.25785073      -1.64372301      -3.18383178
H       -0.15570542      -3.98519581      -3.10996377
H        0.34506473      -3.24889396      -4.61904574
H       -1.82861815      -0.88637903      -4.32166505
H       -3.06710418      -1.75014223      -5.16195248
H       -1.48878659      -2.35418366      -7.02191767
H        0.49268279       1.20221615      -6.33918274
H       -1.60575690      -4.34559932      -5.77753814
H       -3.22325992      -4.06532346      -5.15248927
H       -0.84473565      -6.52259961      -5.42960261
H       -0.79787093      -8.61541391      -4.12795699
H       -2.05023329      -8.78751174      -1.99428017
H       -3.35450980      -6.84810670      -1.16240739
H       -3.40855129      -4.73694930      -2.45471455
C       -0.85440435       0.85440435       0.85440435
C       -2.05565750       0.44407698       1.10775774
C       -3.27040971       0.03090798       1.34613607
C       -4.17901041       0.51765747       2.44186390
N       -4.31577451       1.97939843       2.54691932
C       -4.79753488       2.60807074       1.30384781
C       -6.14997696       2.16965739       0.81056653
C       -6.37852556       1.55639561      -0.31548025
C       -6.62297224       0.95137659      -1.43437429
Br      -8.27124378       0.15362534      -1.63808770
C       -5.16049808       2.37141708       3.69159745
C       -4.62991032       1.95794244       5.04889701
C       -5.41283209       1.16027980       5.89829274
C       -4.94374890       0.79321837       7.16026870
C       -3.68945675       1.22175976       7.58870669
C       -2.90328058       2.01691702       6.75603061
C       -3.37076087       2.38530464       5.49281917
H       -0.48775508       1.84412509       1.08958888
H       -3.60754739      -0.85727849       0.81943516
H       -3.76631377       0.11105883       3.37349240
H       -5.16182289       0.04512608       2.31592600
H       -4.05261609       2.47445323       0.50959290
H       -4.83232333       3.69579389       1.45108166
H       -7.00771863       2.43799414       1.41917514
H       -5.97108543       0.97049564      -2.29729727
H       -6.17838193       1.97959982       3.57091261
H       -5.25407053       3.46573531       3.72126682
H       -6.39591498       0.81889508       5.58212781
H       -5.55804653       0.17424261       7.80895268
H       -3.32448590       0.93590937       8.57162993
H       -1.92443527       2.35020102       7.09038760
H       -2.74848536       3.00295318       4.84877660
C        0.85440435      -0.85440435       0.85440435
C        0.29525026      -1.45938103       1.85286093
C       -0.27273897      -2.05384368       2.86634905
C        0.27853053      -3.22094475       3.63905650
N        1.66981469      -3.07542265       4.09685491
C        1.88144709      -1.88630643       4.94169990
C        1.08927049      -1.82139074       6.21953966
C        0.19394011      -0.91982726       6.50567356
C       -0.69486312      -0.02728827       6.80754940
Br      -1.81675476      -0.37688654       8.22664965
C        2.15464221      -4.29198633       4.77688408
C        2.18443488      -5.53735565       3.91495925
C        1.47763204      -6.68430858       4.30946400
C        1.51727004      -7.84467271       3.53529322
C        2.26595405      -7.87303675       2.36093240
C        2.97496459      -6.74171246       1.95955116
C        2.93660105      -5.57953814       2.73274549
H        1.92279669      -0.80295404       0.69571831
H       -1.30810927      -1.80128716       3.07652617
H        0.19124378      -4.08757596       2.97204526
H       -0.38848751      -3.42454357       4.48681891
H        1.70707189      -0.97809130       4.35149904
H        2.94590311      -1.82787475       5.20542102
H        1.32636674      -2.55396691       6.98455426
H       -0.75777970       0.95327548       6.35533898
H        1.55908185      -4.49357042       5.67624209
H        3.18624626      -4.13429351       5.12053288
H        0.89025675      -6.68182657       5.22485455
H        0.96503300      -8.72636003       3.84984880
H        2.29679647      -8.77690035       1.75832838
H        3.55814262      -6.76407132       1.04280995
H        3.49019517      -4.70062767       2.40939230
