113
Properties=species:S:1:pos:R:3 pbc="F F F"
C        0.00000000       0.00000000       0.00000000
C        0.88225847       0.88225847      -0.88225847
C        1.91649727       0.29078179      -1.63523684
C        2.73696564       1.07556213      -2.45317202
C        2.48743441       2.43503472      -2.48248625
C        1.47593592       3.00620894      -1.74504848
C        0.64843446       2.25804930      -0.92819574
C        1.49676886       4.44134491      -2.00551828
O        0.71437486       5.18243751      -1.43832825
N        2.52281059       4.68693048      -2.90101092
C        3.14187465       3.50234654      -3.22907640
O        4.04141387       3.26526549      -4.01726153
C        2.86297863       5.98412447      -3.41498092
C        1.92036437       7.03075705      -3.32705702
C        2.20259986       8.32218075      -3.78843210
C        3.43448081       8.61937233      -4.34912483
C        4.38510218       7.61174352      -4.45012099
C        4.10472099       6.31295692      -4.00091783
O        5.17393020       5.47106713      -4.13673196
H        2.08359961      -0.78398304      -1.58627144
H        3.53637509       0.63606230      -3.04197888
H       -0.14258190       2.73047392      -0.35432376
H        0.92881578       6.86207423      -2.91629735
H        3.66576335       9.61945154      -4.70426168
H        5.36066767       7.83207546      -4.87869922
H        4.86229013       4.54922128      -4.24417841
C        1.20333696       9.35357662      -3.68214853
C        0.36645427      10.21737066      -3.59313604
Br      -0.98671425      11.61405257      -3.44921037
C       -0.88225847      -0.88225847      -0.88225847
C       -1.45928789      -0.33659754      -2.04663048
C       -2.26885101      -1.12355789      -2.87329089
C       -2.47171564      -2.43783930      -2.49540043
C       -1.90526246      -2.96449046      -1.35744042
C       -1.10080894      -2.21310217      -0.52076840
C       -2.32505205      -4.35814079      -1.26043921
O       -1.98265451      -5.04069917      -0.31178694
N       -3.13053406      -4.62716444      -2.35305349
C       -3.23732787      -3.50019792      -3.13577180
O       -3.79686511      -3.32265501      -4.20442077
C       -3.73788909      -5.90004169      -2.62415324
C       -3.23294643      -7.05526272      -1.98996930
C       -3.79791819      -8.31971064      -2.19558388
C       -4.88845494      -8.47893495      -3.03558808
C       -5.41019305      -7.36174820      -3.67502544
C       -4.84164200      -6.09403886      -3.48291488
O       -5.51715554      -5.11161553      -4.15295822
H       -1.27742273       0.70356123      -2.31202652
H       -2.71894331      -0.72017826      -3.77529470
H       -0.66546088      -2.64945623       0.37270132
H       -2.36824117      -7.00478381      -1.33416238
H       -5.33813385      -9.45439614      -3.19694658
H       -6.27266420      -7.46909778      -4.32968037
H       -4.90875994      -4.37616940      -4.37076048
C       -3.24054944      -9.46856560      -1.52994706
C       -2.77375311     -10.43073162      -0.97247624
Br      -2.01898292     -11.98647271      -0.07109306
C       -0.88225847       0.88225847       0.88225847
C       -1.89354513       1.66251107       0.28645971
C       -2.71704523       2.47684361       1.07181095
C       -2.49069268       2.47861442       2.43564828
C       -1.50177849       1.71433953       3.01107531
C       -0.67240839       0.89970731       2.26256380
C       -1.53767738       1.95690635       4.44904833
O       -0.72982368       1.41997028       5.18534665
N       -2.55704622       2.86032842       4.69337734
C       -3.17108169       3.19436942       3.50784647
O       -4.13739191       3.90321001       3.28333897
C       -2.91871688       3.34874669       5.99462046
C       -2.49993019       2.63835403       7.13989422
C       -2.80082474       3.07755639       8.43483158
C       -3.52479209       4.24180716       8.63637871
C       -3.95173464       4.96509533       7.53013673
C       -3.66413134       4.52447426       6.22999014
O       -4.12106375       5.38786211       5.27280343
H       -2.04193398       1.63578308      -0.79182903
H       -3.50259283       3.08212262       0.62970082
H        0.10216871       0.30630044       2.73808407
H       -1.94572228       1.70789871       7.05356637
H       -3.75804083       4.59460756       9.63682817
H       -4.51237469       5.88673298       7.67233468
H       -4.31026266       4.90015735       4.44526981
C       -2.35619661       2.31219559       9.57066989
C       -1.98382056       1.67120593      10.52193448
Br      -1.38171997       0.63477985      12.06004887
C        0.88225847      -0.88225847       0.88225847
C        0.27804694      -1.75497859       1.80949037
C        1.06283316      -2.57552150       2.62734513
C        2.43494702      -2.48632215       2.48368620
C        3.01853829      -1.63231152       1.57634353
C        2.27075888      -0.80963251       0.75428812
C        4.46435733      -1.78864003       1.69063469
O        5.21359212      -1.10951501       1.01203348
N        4.70418014      -2.74159137       2.66498048
C        3.50711733      -3.20238362       3.16379663
O        3.26781877      -4.07379766       3.98232446
C        6.00951602      -3.18502466       3.06754334
C        7.11175348      -2.94765826       2.21876671
C        8.41143865      -3.33467575       2.56709830
C        8.66136890      -3.96713172       3.77447735
C        7.59835470      -4.21528904       4.63332296
C        6.29216825      -3.84105411       4.28537338
O        5.38805598      -4.12108315       5.27259016
H       -0.80654123      -1.79748964       1.89493960
H        0.61392148      -3.25555857       3.34493622
H        2.75296763      -0.14271028       0.04653788
H        6.98388600      -2.47377877       1.24952260
H        9.66675286      -4.26569544       4.05702827
H        7.78013362      -4.70187903       5.58942969
H        4.50255941      -4.27046837       4.88266204
C        9.50120373      -3.07572117       1.66213720
C       10.41388199      -2.85884670       0.90423228
Br      11.88960553      -2.50817903      -0.32123588
