126
Properties=species:S:1:pos:R:3 pbc="F F F"
C        1.79216249       1.79216249      -1.79216249
C        2.82640130       1.20068582      -2.54514087
C        3.64686967       1.98546616      -3.36307604
C        3.39733843       3.34493874      -3.39239028
C        2.38583994       3.91611296      -2.65495251
C        1.55833848       3.16795333      -1.83809976
C        2.40667289       5.35124893      -2.91542230
O        1.62427888       6.09234153      -2.34823227
N        3.43271461       5.59683451      -3.81091494
C        4.05177867       4.41225056      -4.13898042
O        4.95131789       4.17516951      -4.92716555
C        3.77288266       6.89402849      -4.32488494
C        2.83026840       7.94066108      -4.23696104
C        3.11250389       9.23208477      -4.69833612
Br       1.79971803      10.58708544      -4.55870563
C        4.34438483       9.52927635      -5.25902886
C        5.29500620       8.52164755      -5.36002502
C        5.01462501       7.22286094      -4.91082186
O        6.08383422       6.38097116      -5.04663599
H        2.99350364       0.12592098      -2.49617547
H        4.44627911       1.54596633      -3.95188290
H        0.76732213       3.64037795      -1.26422779
H        1.83871981       7.77197825      -3.82620138
H        4.57566737      10.52935556      -5.61416570
H        6.27057169       8.74197948      -5.78860325
H        5.77219416       5.45912530      -5.15408244
C       -1.79216249      -1.79216249      -1.79216249
C       -3.16723057      -1.50302491      -1.90197250
C       -3.99670778      -2.29341475      -2.70528934
C       -3.41005058      -3.35352175      -3.37109512
C       -2.06685026      -3.63029196      -3.25976319
C       -1.22142413      -2.86824551      -2.47472194
C       -1.78905954      -4.80383030      -4.08045428
O       -0.66698442      -5.27524563      -4.12262263
N       -2.98059972      -5.19329664      -4.66656770
C       -3.98662179      -4.33820341      -4.27818446
O       -5.16021814      -4.28843438      -4.60500044
C       -3.12357952      -6.31018731      -5.55802927
C       -1.97801539      -6.84280079      -6.18707434
C       -2.05058082      -7.94526081      -7.04708315
Br      -0.47690988      -8.60330977      -7.86528946
C       -3.26476784      -8.56005429      -7.30786791
C       -4.41171592      -8.06076400      -6.70419885
C       -4.34793257      -6.94929358      -5.85108166
O       -5.56503358      -6.63291530      -5.31349248
H       -3.59417900      -0.65955687      -1.36186422
H       -5.05742041      -2.08326377      -2.80344416
H       -0.16492507      -3.10611065      -2.40089215
H       -0.99780834      -6.39736334      -6.04172776
H       -3.33103478      -9.41974110      -7.96841276
H       -5.37102882      -8.53903596      -6.89108963
H       -5.60133698      -5.67649352      -5.10757139
C       -1.79216249       1.79216249       1.79216249
C       -1.40456861       3.12362969       2.04402969
C       -2.19577726       3.95346951       2.84616509
C       -3.35371830       3.41013762       3.37081153
C       -3.72654023       2.10947332       3.12089185
C       -2.96677959       1.26505946       2.33255253
C       -4.98159990       1.86778392       3.82396030
O       -5.50569046       0.76903577       3.79012646
N       -5.32746343       3.04001481       4.47298583
C       -4.38036323       4.00529206       4.21735437
O       -4.33156589       5.17931871       4.54276835
C       -6.50904909       3.21164447       5.27110253
C       -7.57999798       2.30447947       5.12341307
C       -8.74729446       2.40575741       5.88987292
Br     -10.14934613       1.16156435       5.63459863
C       -8.88848289       3.41021081       6.83399634
C       -7.85249092       4.31948323       7.00470461
C       -6.68537577       4.23105789       6.23187416
O       -5.75991082       5.17842791       6.57310264
H       -0.48489571       3.51683118       1.61387321
H       -1.91365482       4.98230994       3.04816358
H       -3.27998244       0.24192332       2.15002210
H       -7.54323798       1.50525319       4.38840827
H       -9.78723788       3.49377889       7.43817187
H       -7.94427040       5.10763987       7.74924415
H       -5.19595383       5.38853238       5.80091569
C        1.79216249      -1.79216249       1.79216249
C        1.65435134      -3.19320635       1.72467029
C        2.45176502      -4.02388923       2.51975762
C        3.36258539      -3.41160639       3.36047567
C        3.49228685      -2.04316114       3.42145742
C        2.71972562      -1.19593011       2.64873584
C        4.52904565      -1.74189167       4.40240680
O        4.80947242      -0.58703261       4.66834766
N        4.99570933      -2.94668307       4.89807166
C        4.32990192      -3.98519681       4.28791092
O        4.47264656      -5.19183889       4.38916751
C        6.03188421      -3.07580770       5.88410418
C        6.89839488      -1.98755833       6.12193730
C        7.91153532      -2.04479171       7.08659775
Br       9.04475161      -0.55268511       7.34807239
C        8.09534405      -3.18499850       7.85234749
C        7.25896884      -4.27408462       7.64362531
C        6.24978717      -4.22785954       6.67066111
O        5.49847248      -5.37030200       6.64266688
H        0.92524387      -3.63978522       1.05057100
H        2.36073542      -5.10504951       2.47834341
H        2.83852191      -0.11899240       2.71441355
H        6.82211149      -1.07071803       5.54406991
H        8.87416310      -3.23738416       8.60764138
H        7.38426123      -5.17280719       8.24408600
H        5.13226857      -5.50791862       5.74521470
C       -0.00445707       0.01189536      -1.78238275
H       -0.66409135       0.67374010      -2.43557963
H        0.65740317      -0.63156657      -2.45157240
C       -0.90989263      -0.90692880      -0.91072765
C        0.90977584       0.90977584      -0.90977584
C       -0.00465871       1.77757030       0.00794375
H       -0.66225468       2.44313916      -0.64384735
H        0.64322798       2.43503045       0.67728295
C       -1.78241447       0.00034974      -0.00472694
H       -2.45427497      -0.65498947       0.64260836
H       -2.43311707       0.67328779      -0.65473579
C       -0.91132561       0.90220522       0.91563759
C       -0.01476271      -0.02253852       1.78660255
H       -0.67934791      -0.69751639       2.42135241
H        0.63392994       0.61504881       2.47327442
C        0.01484550      -1.77751727      -0.01636693
H        0.67870853      -2.42144646      -0.68295456
H       -0.62264859      -2.45592969       0.64226336
C        1.78714474       0.01002794       0.00389507
H        2.44202412       0.67113390       0.66197326
H        2.45385902      -0.65136977      -0.64189061
C        0.91606151      -0.90478549       0.90901405
