105
Properties=species:S:1:pos:R:3 pbc="F F F"
C        0.00000000       0.00000000       0.00000000
C        0.88225847       0.88225847      -0.88225847
C        1.91649727       0.29078179      -1.63523684
C        2.73696564       1.07556213      -2.45317202
C        2.48743441       2.43503472      -2.48248625
C        1.47593592       3.00620894      -1.74504848
C        0.64843446       2.25804930      -0.92819574
C        1.49676886       4.44134491      -2.00551828
O        0.71437486       5.18243751      -1.43832825
N        2.52281059       4.68693048      -2.90101092
C        3.14187465       3.50234654      -3.22907640
O        4.04141387       3.26526549      -4.01726153
C        2.86297863       5.98412447      -3.41498092
C        1.92036437       7.03075705      -3.32705702
C        2.20259986       8.32218075      -3.78843210
Br       0.88981400       9.67718142      -3.64880161
C        3.43448081       8.61937233      -4.34912483
C        4.38510218       7.61174352      -4.45012099
C        4.10472099       6.31295692      -4.00091783
O        5.17393020       5.47106713      -4.13673196
H        2.08359961      -0.78398304      -1.58627144
H        3.53637509       0.63606230      -3.04197888
H       -0.14258190       2.73047392      -0.35432376
H        0.92881578       6.86207423      -2.91629735
H        3.66576335       9.61945154      -4.70426168
H        5.36066767       7.83207546      -4.87869922
H        4.86229013       4.54922128      -4.24417841
C       -0.88225847      -0.88225847      -0.88225847
C       -2.27403570      -0.66133379      -0.90714642
C       -3.10409412      -1.45314653      -1.70845914
C       -2.50092757      -2.44573208      -2.45829573
C       -1.14147503      -2.65609036      -2.42962795
C       -0.29505218      -1.89077781      -1.64884951
C       -0.84885083      -3.77038969      -3.32439154
O        0.29173093      -4.17887141      -3.44800013
N       -2.04867609      -4.19251136      -3.86956454
C       -3.07447534      -3.41266615      -3.38615610
O       -4.26477603      -3.40884275      -3.65032210
C       -2.18230413      -5.26907804      -4.81070185
C       -1.04635653      -5.70777706      -5.52404486
C       -1.10881699      -6.76779988      -6.43659583
Br       0.45037163      -7.29934872      -7.36681994
C       -2.30261089      -7.43223836      -6.66812871
C       -3.43960633      -7.02556805      -5.98179232
C       -3.38672412      -5.95667778      -5.07519384
O       -4.58797488      -5.73282240      -4.46093201
H       -2.71367649       0.13000224      -0.30221376
H       -4.17776038      -1.29490209      -1.74175380
H        0.77451737      -2.07566009      -1.64107307
H       -0.08350810      -5.21884070      -5.40483857
H       -2.36043715      -8.25985479      -7.36918463
H       -4.38216686      -7.54404887      -6.14522662
H       -4.66144352      -4.79126682      -4.20297948
C       -0.88225847       0.88225847       0.88225847
C       -1.78054471       1.78441553       0.27755567
C       -2.60163857       2.60166435       1.06239687
C       -2.48713457       2.48281526       2.43500555
C       -1.60823402       1.59987978       3.01907953
C       -0.78431596       0.77909503       2.27126851
C       -1.74233535       1.73606191       4.46523480
O       -1.03938839       1.08169584       5.21405639
N       -2.70754757       2.69830184       4.70490259
C       -3.19664471       3.16897804       3.50767483
O       -4.08569260       3.96867515       3.26957314
C       -3.13590738       3.11550035       6.01067629
C       -2.86581702       2.28962619       7.12273523
C       -3.23695113       2.65345417       8.42280741
Br      -2.85278625       1.49486199       9.86814879
C       -3.88554402       3.85418002       8.66325392
C       -4.16593867       4.69060578       7.59042224
C       -3.80769846       4.32683614       6.28406114
O       -4.11948278       5.29376109       5.36848542
H       -1.84258888       1.85072886      -0.80742972
H       -3.30114826       3.30008970       0.61317831
H       -0.09752884       0.09085390       2.75383305
H       -2.37775970       1.32639321       7.00303446
H       -4.17204342       4.14872825       9.66870490
H       -4.66558054       5.64140777       7.76445404
H       -4.27698337       4.88642663       4.49227982
C        0.88225847      -0.88225847       0.88225847
C        0.35879116      -2.08436436       1.39936039
C        1.14638531      -2.91177803       2.20753645
C        2.43872041      -2.49653178       2.46970319
C        2.94377549      -1.32183184       1.96158600
C        2.19118013      -0.48338171       1.16011766
C        4.31791510      -1.19210785       2.43360911
O        4.97772802      -0.20909174       2.14832085
N        4.59777340      -2.30274473       3.21023386
C        3.49627688      -3.12689294       3.25012776
O        3.33768446      -4.22016517       3.76609125
C        5.85791704      -2.55146164       3.85270533
C        7.00653625      -1.86058030       3.41106190
C        8.25739002      -2.04267733       4.01314536
Br       9.75893341      -1.09160192       3.36526170
C        8.40886229      -2.91488022       5.07923546
C        7.29784225      -3.61030166       5.53882279
C        6.04433247      -3.44167698       4.93258628
O        5.06373110      -4.16850525       5.54949294
H       -0.66446308      -2.37860998       1.17174112
H        0.76006925      -3.84246065       2.61188637
H        2.61022823       0.43938358       0.77137114
H        6.96247530      -1.17663510       2.56807696
H        9.37345966      -3.05858317       5.55743374
H        7.39874037      -4.29106942       6.38163256
H        4.35773831      -4.38965393       4.90829758
