113
Properties=species:S:1:pos:R:3 pbc="F F F"
C        0.00000000       0.00000000       0.00000000
C        4.17877758       3.80048503      -6.54097574
C        3.32116072       3.48660259      -5.55908467
C        3.29304389       4.13936879      -4.20694591
N        3.49351921       3.17287436      -3.12920170
C        2.47740842       2.48874326      -2.48410120
C        1.08336081       2.50763924      -2.66887092
C        0.29633277       1.69301128      -1.84849760
C        0.88301386       0.88301386      -0.88301386
C        2.26755624       0.86288937      -0.70376593
C        3.08045661       1.68265099      -1.51611908
C        4.49080631       1.90508324      -1.58286215
C        5.58801071       1.38783585      -0.86023932
C        6.87681041       1.82854014      -1.16918660
Br       8.34893653       1.14193554      -0.19826439
C        7.09434462       2.76204103      -2.17587838
C        6.02222302       3.28206469      -2.90811362
C        4.72506125       2.84105751      -2.59180818
H        4.13995134       3.28460298      -7.49525791
H        4.93826486       4.56606911      -6.41816684
H        2.58180304       2.70751302      -5.73884377
H        2.32746242       4.63014521      -4.04668501
H        4.05857596       4.91698512      -4.10836084
H        0.61528060       3.13361000      -3.42209736
H       -0.78379559       1.70074295      -1.97637778
H        2.72125184       0.22924814       0.05235585
H        5.42345153       0.65882421      -0.07316593
H        8.10257681       3.09693954      -2.40634502
H        6.20215445       4.00500535      -3.69655222
C       -3.74643113      -6.53080591      -4.24300130
C       -3.43510942      -5.56176501      -3.36997354
C       -4.11791974      -4.22634898      -3.29508988
N       -3.18141576      -3.12186028      -3.49231923
C       -2.48858341      -2.48436406      -2.47730541
C       -2.47045148      -2.70149863      -1.08792085
C       -1.65660436      -1.88049447      -0.30074282
C       -0.88301386      -0.88301386      -0.88301386
C       -0.89956764      -0.67158755      -2.26305636
C       -1.71933812      -1.48410229      -3.07578627
C       -1.97327404      -1.52364373      -4.48183393
C       -1.49869928      -0.76404887      -5.57333774
C       -1.96236842      -1.05358708      -6.85858164
Br      -1.33304554      -0.03323372      -8.32285719
C       -2.87735599      -2.07668465      -7.07822339
C       -3.35507443      -2.84537586      -6.01195104
C       -2.89107499      -2.54866840      -4.71818355
H       -3.20799572      -7.47333607      -4.23848044
H       -4.53227773      -6.40861704      -4.98160603
H       -2.63492975      -5.74009344      -2.65313664
H       -4.58941156      -4.09989151      -2.31498957
H       -4.91537780      -4.12851489      -4.04002924
H       -3.06777845      -3.47978602      -0.62342349
H       -1.63600102      -2.03329723       0.77597311
H       -0.29430268       0.10944354      -2.71328500
H       -0.78429139       0.03595829      -5.40710857
H       -3.23048311      -2.29174164      -8.08363661
H       -4.06374465      -3.64625167      -6.19371570
C       -6.54473587       3.82597266       4.14952981
C       -5.49655580       3.06275818       3.80753399
C       -4.08315556       3.30027075       4.25593228
N       -3.17643816       3.49306104       3.12609607
C       -2.48254652       2.47820508       2.48950127
C       -2.45966015       1.08952907       2.71068175
C       -1.64338974       0.30271218       1.89173973
C       -0.88301386       0.88301386       0.88301386
C       -0.91009807       2.26148702       0.66262646
C       -1.72159572       3.07544982       1.48218114
C       -1.96322562       4.48333144       1.53219464
C       -1.47816888       5.57639736       0.78151964
C       -1.91235745       6.86603473       1.09614497
Br      -1.25927243       8.33385153       0.09601249
C       -2.81402790       7.08766111       2.13057502
C       -3.31179938       6.01840028       2.88220167
C       -2.86921715       4.72144100       2.56726879
H       -7.54072237       3.59277838       3.78631148
H       -6.43758026       4.69766064       4.78725991
H       -5.66421996       2.20168445       3.16225542
H       -3.72415843       2.44393741       4.83619680
H       -3.99912997       4.17657676       4.90821518
H       -3.05211918       0.62575718       3.49311160
H       -1.61153113      -0.77232639       2.05412040
H       -0.31368273       2.71039681      -0.12593540
H       -0.77389870       5.40865739      -0.02711442
H       -3.14392488       8.09653630       2.36540018
H       -4.02040095       6.20017517       3.68313590
C        6.48797669      -4.42709123       3.60517042
C        5.55689864      -3.51244793       3.29750141
C        4.27744990      -3.30580204       4.05610665
N        3.10263017      -3.48702892       3.20593619
C        2.48508847      -2.47707073       2.48809367
C        2.78715356      -1.10918683       2.36353057
C        1.96450847      -0.32141804       1.55191514
C        0.88301386      -0.88301386       0.88301386
C        0.58711285      -2.24207558       1.00502313
C        1.40009927      -3.05434995       1.82477747
C        1.36835337      -4.44121458       2.16918375
C        0.51182986      -5.50707121       1.81718482
C        0.75062222      -6.77721503       2.34669989
Br      -0.39926726      -8.20653546       1.88186826
C        1.81683412      -7.00701123       3.20841868
C        2.68104496      -5.96669116       3.56466522
C        2.43562550      -4.68760093       3.03470051
H        7.39082166      -4.51934978       3.00964078
H        6.37256839      -5.10517828       4.44475413
H        5.72588798      -2.86068900       2.44158285
H        4.24446256      -2.29182686       4.46800322
H        4.18667339      -3.99109803       4.90615050
H        3.63121170      -0.66125704       2.87851922
H        2.18275588       0.73925950       1.44982875
H       -0.25931417      -2.67611061       0.48134770
H       -0.32216511      -5.33281198       1.14479480
H        1.99160088      -8.00044787       3.61381262
H        3.51454784      -6.15683811       4.23232608
