121
Properties=species:S:1:pos:R:3 pbc="F F F"
C        0.00000000       0.00000000       0.00000000
C        4.17877758       3.80048503      -6.54097574
C        3.32116072       3.48660259      -5.55908467
C        3.29304389       4.13936879      -4.20694591
N        3.49351921       3.17287436      -3.12920170
C        2.47740842       2.48874326      -2.48410120
C        1.08336081       2.50763924      -2.66887092
C        0.29633277       1.69301128      -1.84849760
C        0.88301386       0.88301386      -0.88301386
C        2.26755624       0.86288937      -0.70376593
C        3.08045661       1.68265099      -1.51611908
C        4.49080631       1.90508324      -1.58286215
C        5.58801071       1.38783585      -0.86023932
C        6.87681041       1.82854014      -1.16918660
C        7.09434462       2.76204103      -2.17587838
C        6.02222302       3.28206469      -2.90811362
C        4.72506125       2.84105751      -2.59180818
H        4.13995134       3.28460298      -7.49525791
H        4.93826486       4.56606911      -6.41816684
H        2.58180304       2.70751302      -5.73884377
H        2.32746242       4.63014521      -4.04668501
H        4.05857596       4.91698512      -4.10836084
H        0.61528060       3.13361000      -3.42209736
H       -0.78379559       1.70074295      -1.97637778
H        2.72125184       0.22924814       0.05235585
H        5.42345153       0.65882421      -0.07316593
H        8.10257681       3.09693954      -2.40634502
H        6.20215445       4.00500535      -3.69655222
C        7.99699323       1.30608308      -0.43038415
C        8.93514635       0.86852530       0.18836290
Br      10.45206059       0.16103137       1.18882456
C       -3.88189601      -4.08751544      -6.55082689
C       -3.10246719      -3.75177852      -5.51260227
C       -3.29675537      -4.23761796      -4.10498526
N       -3.49403843      -3.13349260      -3.16806424
C       -2.47804918      -2.48939654      -2.48280716
C       -1.08454497      -2.67865695      -2.49666904
C       -0.29777325      -1.86040192      -1.67966648
C       -0.88301386      -0.88301386      -0.88301386
C       -2.26640030      -0.69421312      -0.87359812
C       -3.08017852      -1.51382091      -1.68522725
C       -4.49180097      -1.59108215      -1.89586858
C       -5.59007284      -0.87728098      -1.36873206
C       -6.88197671      -1.21188148      -1.78067895
C       -7.10094350      -2.23041218      -2.70090835
C       -6.02673842      -2.94542937      -3.24023355
C       -4.72732814      -2.61054198      -2.82005682
H       -3.68027034      -3.69640615      -7.54313573
H       -4.73612174      -4.74763497      -6.43874410
H       -2.26043021      -3.08298521      -5.68474440
H       -2.41932036      -4.80580867      -3.77916360
H       -4.15580405      -4.91186394      -4.01625394
H       -0.61701139      -3.43640084      -3.11757572
H        0.78113101      -1.99839814      -1.67605801
H       -2.71912704       0.06991547      -0.24893257
H       -5.42442258      -0.08119075      -0.64982835
H       -8.11162157      -2.48109192      -3.01314787
H       -6.20669213      -3.73405202      -3.96296788
C       -8.00403243      -0.48855685      -1.24087117
C       -8.94375410       0.11722753      -0.78878216
Br     -10.46320456       1.09672963      -0.05779247
C       -6.54614454       4.13727635       3.83681745
C       -5.55606553       3.28988035       3.52090209
C       -4.19394454       3.29221897       4.15319508
N       -3.13413169       3.49410481       3.16735877
C       -2.48392836       2.47748120       2.48884332
C       -2.64697993       1.08125464       2.53163639
C       -1.82703143       0.29430702       1.71650320
C       -0.88301386       0.88301386       0.88301386
C       -0.72535553       2.26963510       0.83922093
C       -1.53760511       3.08264901       1.65897256
C       -1.62261126       4.49507593       1.86106451
C       -0.92480761       5.59500948       1.31626879
C       -1.24679830       6.88560356       1.74213529
C       -2.24248758       7.10219778       2.68757867
C       -2.95024432       6.02723855       3.23491846
C       -2.62077344       4.72839089       2.80876261
H       -7.50740551       4.07612279       3.33628393
H       -6.42344813       4.91019019       4.58886249
H       -5.73621189       2.53602361       2.75592432
H       -4.01148882       2.33681354       4.65599028
H       -4.09537727       4.07099473       4.91754992
H       -3.38339014       0.61150512       3.17609270
H       -1.93819202      -0.78738469       1.74251780
H        0.01405416       2.72492941       0.18726889
H       -0.14640843       5.43119681       0.57783644
H       -2.48330983       8.11185195       3.01069959
H       -3.73033600       6.20630614       3.96706989
C       -0.53325008       8.00867477       1.19153562
C        0.06434655       8.94924690       0.73040839
Br       1.03060977      10.47007250      -0.01519533
C        6.50014290      -4.38247819       3.63761726
C        5.55971727      -3.47758600       3.32954471
C        4.26565580      -3.30257278       4.07113001
N        3.10705360      -3.48855275       3.19998892
C        2.48491671      -2.47711969       2.48821648
C        2.76742350      -1.10296263       2.38948483
C        1.94515422      -0.31535802       1.57732941
C        0.88301386      -0.88301386       0.88301386
C        0.60657096      -2.24821593       0.97942466
C        1.41944197      -3.06059638       1.79918834
C        1.40409911      -4.45300494       2.12164765
C        0.56988380      -5.52629277       1.73990932
C        0.82033559      -6.80073711       2.25346445
C        1.87660988      -7.02753510       3.12811905
C        2.71884482      -5.97972570       3.51383082
C        2.46163447      -4.69643217       2.99986030
H        7.41338902      -4.45148572       3.05493749
H        6.38243780      -5.07531756       4.46474545
H        5.73165414      -2.80998728       2.48651840
H        4.21046376      -2.29579567       4.49803320
H        4.17252819      -4.00240353       4.90899020
H        3.59633458      -0.65019512       2.92445825
H        2.14832439       0.75002368       1.49502442
H       -0.22479203      -2.68699259       0.43594357
H       -0.25627747      -5.35440324       1.05731590
H        2.06063392      -8.02438316       3.52084428
H        3.54483559      -6.16743270       4.19144373
C       -0.03196885      -7.89603155       1.86939776
C       -0.74577382      -8.81334065       1.54774191
Br      -1.89993608     -10.29655188       1.02765161
