158
Properties=species:S:1:pos:R:3 pbc="F F F"
C        1.79159995       1.79159995      -1.79159995
C        2.92893882       2.39103936      -1.25231544
C        3.73495900       3.19808907      -2.05890105
C        3.40405847       3.40467293      -3.40411807
C        2.25904551       2.79756494      -3.93531066
C        1.45215340       1.99106297      -3.12898391
C        4.25000758       4.25147347      -4.25081402
C        5.25593987       3.71399083      -4.96733724
C        6.12495103       4.58831386      -5.86265198
H        7.15921446       4.50815073      -5.50266608
C        6.03978457       4.14831044      -7.31930095
C        7.19734560       3.72761377      -7.99542296
C        7.13301672       3.31575504      -9.32904256
C        5.91094910       3.32115941      -9.99747474
Br       5.82556218       2.76371813     -11.80188159
C        4.75211068       3.73648565      -9.34693817
C        4.81577039       4.14895715      -8.01430940
N        5.78594875       6.00949379      -5.72472893
N        6.50735724       7.02374658      -6.24789109
C        5.80104231       8.07485972      -5.81522891
N        4.72009408       7.78537304      -5.02171934
C        4.74913389       6.47915906      -4.95915052
N        3.98193044       5.60266586      -4.28130038
H        3.19549335       2.23796934      -0.20979409
H        4.62027040       3.66532504      -1.63285633
H        1.98874602       2.95165215      -4.97771573
H        0.56517215       1.52616026      -3.55186818
H        5.47106291       2.65036807      -4.93575022
H        8.16267421       3.72765736      -7.49284340
H        8.04055254       2.99943852      -9.83694138
H        3.79802079       3.74817647      -9.86680731
H        3.90119416       4.47835046      -7.52357386
H        6.08536761       9.08623535      -6.07642044
H        3.24023560       5.94732794      -3.67924901
C       -1.79159995      -1.79159995      -1.79159995
C       -1.59423300      -1.80641652      -3.17164410
C       -2.40135839      -2.61254331      -3.97804743
C       -3.40456574      -3.40390747      -3.40437624
C       -3.59403378      -3.38109232      -2.01679501
C       -2.78775298      -2.57451179      -1.20993551
C       -4.25158196      -4.25016042      -4.25055269
C       -3.90672634      -5.52746118      -4.50308043
C       -4.79426173      -6.41508561      -5.36656953
H       -4.20333378      -6.72979543      -6.23690206
C       -5.28035188      -7.63457827      -4.59246580
C       -4.95492900      -8.92635879      -5.03909454
C       -5.38862299     -10.05322495      -4.33596637
C       -6.15113991      -9.89775990      -3.18068345
Br      -6.73725778     -11.42339255      -2.23051157
C       -6.48685202      -8.62676295      -2.72191953
C       -6.05438913      -7.50009872      -3.42454909
N       -5.92504723      -5.66698240      -5.92814183
N       -6.76395282      -6.14136583      -6.87367627
C       -7.56508816      -5.08288797      -7.04315481
N       -7.25304826      -3.97016728      -6.30397093
C       -6.20052885      -4.35660612      -5.63030850
N       -5.39790095      -3.69346238      -4.77453335
H       -0.81895031      -1.19641231      -3.62789416
H       -2.24477891      -2.61903800      -5.05463486
H       -4.37123922      -3.98862731      -1.55824736
H       -2.94493731      -2.56391230      -0.13435098
H       -2.99889906      -5.96206527      -4.09621688
H       -4.36987648      -9.06741758      -5.94588091
H       -5.13176254     -11.04452110      -4.70064879
H       -7.08684362      -8.50145753      -1.82470342
H       -6.33301755      -6.51400609      -3.05609483
H       -8.39829442      -5.11621241      -7.73351657
H       -5.57185650      -2.71128016      -4.58367590
C       -1.79159995       1.79159995       1.79159995
C       -1.41339867       2.05065099       3.10824396
C       -2.22046460       2.85668574       3.91479879
C       -3.40448763       3.40389200       3.40446983
C       -3.77472511       3.13690166       2.08029435
C       -2.96847564       2.33023638       1.27348826
C       -4.25149751       4.25002917       4.25076839
C       -4.08142406       5.58603265       4.26981124
C       -4.97224051       6.46986109       5.13381527
H       -4.32567252       6.99528062       5.84907813
C       -5.74526186       7.47444560       4.28768849
C       -5.57010860       8.85259666       4.49767708
C       -6.26762449       9.78490206       3.72528776
C       -7.14586086       9.34696478       2.73675761
Br      -8.08894184      10.60960935       1.69261071
C       -7.33600582       7.98582916       2.51369952
C       -6.63979365       7.05347532       3.28576796
N       -5.88390916       5.67312668       5.96313563
N       -6.65081324       6.17232330       6.95585838
C       -7.24435684       5.05493939       7.39183472
N       -6.86401835       3.89237218       6.77079593
C       -5.98706578       4.30704965       5.89332803
N       -5.21366656       3.63246324       5.01976688
H       -0.49687323       1.63133636       3.51504719
H       -1.92207255       3.05417616       4.94220306
H       -4.69305372       3.55317743       1.67188274
H       -3.26667537       2.12880719       0.24771803
H       -3.31734368       6.07025703       3.66958049
H       -4.89693574       9.21312452       5.27311470
H       -6.12325389      10.84690978       3.90676876
H       -8.02497567       7.64018973       1.74783918
H       -6.80678860       5.99300448       3.10332539
H       -7.97076462       5.08325674       8.19400203
H       -5.25477079       2.61805966       4.99398210
C        1.79159995      -1.79159995       1.79159995
C        2.47848851      -2.86590205       1.22790306
C        3.28444694      -3.67270887       2.03479331
C        3.40392450      -3.40459796       3.40432700
C        2.70921444      -2.32273200       3.95997467
C        1.90242162      -1.51604955       3.15372911
C        4.24992013      -4.25112729       4.25124765
C        5.54353206      -3.93713504       4.45660085
C        6.42039782      -4.80431330       5.35120575
H        7.24813902      -5.18412380       4.73776846
C        6.96347045      -4.01050719       6.53341832
C        8.35037662      -3.86507744       6.70492828
C        8.86216613      -3.13494680       7.78070139
C        7.99157562      -2.54433053       8.69367710
Br       8.68557221      -1.55685828      10.14873141
C        6.61381146      -2.67802177       8.54370128
C        6.10160997      -3.40822191       7.46920506
N        5.70823654      -6.00310675       5.80882817
N        6.28658543      -7.03873182       6.45367767
C        5.23316894      -7.84944410       6.60851790
N        4.05328829      -7.41032666       6.06357152
C        4.38669572      -6.25746326       5.54328449
N        3.67825305      -5.36912242       4.81852121
H        2.39324997      -3.08356101       0.16644581
H        3.81677808      -4.51109713       1.59057656
H        2.79077650      -2.10471147       5.02262592
H        1.36689120      -0.67997952       3.59632987
H        5.99458078      -3.06042367       4.00217676
H        9.04586759      -4.32910039       6.00820699
H        9.93835239      -3.03871218       7.89986786
H        5.93154903      -2.22416051       9.25729504
H        5.02177418      -3.50947310       7.37187119
H        5.32624712      -8.79571410       7.12606218
H        2.71168155      -5.57261600       4.58251500
C       -0.00445707       0.01189536      -1.78238275
H       -0.66409135       0.67374010      -2.43557963
H        0.65740317      -0.63156657      -2.45157240
C       -0.90989263      -0.90692880      -0.91072765
C        0.90977584       0.90977584      -0.90977584
C       -0.00465871       1.77757030       0.00794375
H       -0.66225468       2.44313916      -0.64384735
H        0.64322798       2.43503045       0.67728295
C       -1.78241447       0.00034974      -0.00472694
H       -2.45427497      -0.65498947       0.64260836
H       -2.43311707       0.67328779      -0.65473579
C       -0.91132561       0.90220522       0.91563759
C       -0.01476271      -0.02253852       1.78660255
H       -0.67934791      -0.69751639       2.42135241
H        0.63392994       0.61504881       2.47327442
C        0.01484550      -1.77751727      -0.01636693
H        0.67870853      -2.42144646      -0.68295456
H       -0.62264859      -2.45592969       0.64226336
C        1.78714474       0.01002794       0.00389507
H        2.44202412       0.67113390       0.66197326
H        2.45385902      -0.65136977      -0.64189061
C        0.91606151      -0.90478549       0.90901405
