185
Properties=species:S:1:pos:R:3 pbc="F F F"
C        0.00000000       0.00000000       0.00000000
C        7.48936489      -4.52531587      -9.43716594
O        6.81198687      -4.83863369      -8.22629564
C        6.35639632      -3.76393712      -7.50978203
C        5.37091304      -4.05134173      -6.56573566
C        4.81209004      -3.03180745      -5.78448869
C        5.23207477      -1.70418334      -5.92344370
C        6.24659281      -1.43836651      -6.85443923
C        6.80749255      -2.45294460      -7.64007117
C        4.64086829      -0.62725481      -5.12115279
C        3.51571787      -0.79307369      -4.13511247
C        3.04318205       0.64873416      -4.01374629
H        2.38707874       0.87233370      -4.87164339
N        4.31872495       1.33902810      -4.13188584
N        5.06233527       0.65412560      -5.20073250
C        4.09023678       2.77392079      -4.27534341
H        3.55743844       2.97186146      -5.21669537
O        3.27721090       3.35080559      -3.20999444
C        2.49205363       2.49488715      -2.48060434
C        1.82871844       3.04451617      -1.38359120
C        1.02335433       2.23739797      -0.57920484
C        0.88285574       0.88285574      -0.88285574
C        1.53383510       0.32727282      -1.98432028
C        2.34967847       1.13418657      -2.78491415
C        5.37060237       3.60890429      -4.26693224
C        5.42812384       4.81856222      -4.98117153
C        6.58150366       5.60605781      -4.96201964
C        7.69106732       5.19903621      -4.22190775
C        7.64088858       4.00757630      -3.49962265
Br       9.14854251       3.46035243      -2.49601821
C        6.49168861       3.22139017      -3.51229732
H        8.47134977      -4.08510869      -9.23711950
H        6.88495266      -3.87134816     -10.07552049
H        7.65054474      -5.46124417      -9.98057972
H        5.02378617      -5.07177994      -6.43897716
H        4.04502180      -3.28899883      -5.06156982
H        6.60968398      -0.41855163      -6.96690431
H        7.59608156      -2.17681812      -8.32920089
H        3.89182052      -1.19958661      -3.18843260
H        2.71134700      -1.43423068      -4.50936826
H        1.95457605       4.09833022      -1.15538290
H        0.51877895       2.67174101       0.27797576
H        1.41701086      -0.72548148      -2.22206534
H        4.56560682       5.14055493      -5.55936732
H        6.61303535       6.53199390      -5.52731921
H        8.58760726       5.81009346      -4.21617104
H        6.45064447       2.28127239      -2.96408546
C       -6.29724447     -10.37812527       4.27415478
O       -5.20677952      -9.49331095       4.50044166
C       -4.89087514      -8.66654087       3.45517477
C       -4.12103330      -7.55228533       3.78801166
C       -3.75049356      -6.62242344       2.80814571
C       -4.13377966      -6.79034524       1.47278977
C       -4.88001860      -7.93309767       1.15045074
C       -5.25554809      -8.86504525       2.12597423
C       -3.76427987      -5.81305777       0.44257137
C       -3.01326471      -4.53170662       0.68721469
C       -3.35697335      -3.76606590      -0.58262325
H       -4.35657109      -3.31709221      -0.45739253
N       -3.38883752      -4.86586057      -1.53494081
N       -4.07937007      -5.97660234      -0.86122096
C       -3.93284320      -4.39957662      -2.80708115
H       -4.98037300      -4.09355082      -2.67207145
O       -3.23217120      -3.24554498      -3.36029475
C       -2.48192997      -2.48859510      -2.49702004
C       -1.71453351      -1.47371915      -3.06857314
C       -0.90965182      -0.66895202      -2.26135331
C       -0.88285574      -0.88285574      -0.88285574
C       -1.65542659      -1.88834622      -0.30165540
C       -2.45457577      -2.70211707      -1.11208636
C       -3.88049681      -5.44309591      -3.92284618
C       -4.85092642      -5.43676250      -4.94016867
C       -4.80174003      -6.36681496      -5.98102611
C       -3.77685359      -7.31145799      -6.02369970
C       -2.80194071      -7.31908005      -5.02706677
Br      -1.41275426      -8.60199712      -5.09016177
C       -2.84449191      -6.39108684      -3.98979736
H       -6.02321946     -11.16946712       3.56932601
H       -7.18743571      -9.83676588       3.93507660
H       -6.54305841     -10.85473604       5.22791416
H       -3.81239021      -7.39515098       4.81655779
H       -3.15407452      -5.76480847       3.10129020
H       -5.17178742      -8.10185861       0.11560936
H       -5.82046935      -9.73071943       1.80272446
H       -1.93923824      -4.72963640       0.78820813
H       -3.36601389      -3.99262942       1.57215873
H       -1.73967920      -1.32500435      -4.14360561
H       -0.30851763       0.11201319      -2.71603977
H       -1.63777586      -2.04781207       0.77199320
H       -5.65175223      -4.70205572      -4.91172111
H       -5.56464481      -6.35483030      -6.75287335
H       -3.74701169      -8.03692899      -6.82993108
H       -2.09607865      -6.40121251      -3.19871115
C      -12.49643261       2.12768540      -2.22290305
O      -11.25289155       1.74331833      -2.79656108
C      -10.14834884       1.97416624      -2.02027384
C       -9.00699187       1.25766935      -2.37935425
C       -7.81961906       1.39399988      -1.64884765
C       -7.74440298       2.25586516      -0.54893300
C       -8.89196187       2.99264332      -0.22193965
C      -10.08263538       2.85891099      -0.94692725
C       -6.50985029       2.39275200       0.23216398
C       -5.24226135       1.61464806       0.00084724
C       -4.54975700       1.81439911       1.34150639
H       -4.97406669       1.09507412       2.06191502
N       -4.97535268       3.17331930       1.64096692
N       -6.39608969       3.25367436       1.26742932
C       -4.61409298       3.51060105       3.01480693
H       -5.16788492       2.86571314       3.71239720
O       -3.19824979       3.32526444       3.31449670
C       -2.48127327       2.49634187       2.48992999
C       -1.10539519       2.43952203       2.71190858
C       -0.30136775       1.63318437       1.90540502
C       -0.88285574       0.88285574       0.88285574
C       -2.25929739       0.92526680       0.66086401
C       -3.06427747       1.74171926       1.46278247
C       -4.89127626       4.96666810       3.38849454
C       -5.20543250       5.30626360       4.71616149
C       -5.43529512       6.63529218       5.07899379
C       -5.34647010       7.64462712       4.12091405
C       -5.02322827       7.32096843       2.80389083
Br      -4.90271734       8.69421207       1.50798373
C       -4.78902649       5.99789895       2.43845067
H      -12.59499757       3.21728414      -2.18892113
H      -12.63132703       1.68677603      -1.22897806
H      -13.29334347       1.74303835      -2.86650153
H       -9.03760659       0.57947139      -3.22609458
H       -6.95082792       0.81957941      -1.95281454
H       -8.85544576       3.68846812       0.61412278
H      -10.92534646       3.46903155      -0.64591369
H       -4.67826406       2.04035670      -0.83795426
H       -5.42249386       0.55154776      -0.18755705
H       -0.66666617       3.03551569       3.50610731
H        0.76953444       1.60274609       2.07933255
H       -2.70969333       0.33496536      -0.13106397
H       -5.27544903       4.52311653       5.46696350
H       -5.68697891       6.87920657       6.10616298
H       -5.53343438       8.67475209       4.40568529
H       -4.55234972       5.73527796       1.40837463
C       -2.64759239     -12.28812724       2.76068012
O       -3.18505925     -11.03790771       2.34680034
C       -2.35404922      -9.95954505       2.49674540
C       -2.69605401      -8.83452403       1.74683695
C       -1.91140093      -7.67543210       1.80074011
C       -0.77282239      -7.61228670       2.61187082
C       -0.46222194      -8.74125503       3.38363244
C       -1.24139063      -9.90377356       3.33223619
C        0.06432167      -6.40828037       2.66216423
C       -0.14756782      -5.16539063       1.83993383
C        1.22824179      -4.52418786       1.95323285
H        1.89831511      -5.00910537       1.22363535
N        1.56857092      -4.90535095       3.31571704
N        1.13993566      -6.30388497       3.47337274
C        2.96966912      -4.59049665       3.57933520
H        3.61480448      -5.20056150       2.93062929
O        3.31981563      -3.19801210       3.32018319
C        2.49057035      -2.48102150       2.49595326
C        2.76707560      -1.11968361       2.37006659
C        1.96047596      -0.31564474       1.56383645
C        0.88285574      -0.88285574       0.88285574
C        0.60568648      -2.24535678       0.99438495
C        1.40811004      -3.04972489       1.81094427
C        3.39451232      -4.82269627       5.02923031
C        4.72144237      -5.17992165       5.32649357
C        5.13189281      -5.36971440       6.64797389
C        4.22321144      -5.19722239       7.69157744
C        2.90797874      -4.83072649       7.40938230
Br       1.67925227      -4.59671340       8.82894748
C        2.49536571      -4.63624030       6.09377010
H       -2.57034111     -12.34253195       3.85116973
H       -1.68030262     -12.48444958       2.28497803
H       -3.34001683     -13.07161234       2.43828478
H       -3.57206084      -8.85651000       1.10653423
H       -2.20357823      -6.81895287       1.20221816
H        0.40414017      -8.71217804       4.04171845
H       -0.94951869     -10.73260211       3.96538090
H       -0.94277516      -4.54813500       2.27530667
H       -0.38943868      -5.38144651       0.79447675
H        3.60408455      -0.69146807       2.91273655
H        2.17744203       0.74446527       1.47956744
H       -0.22929478      -2.68507939       0.45781011
H        5.43385671      -5.31517700       4.51649536
H        6.15731233      -5.65548871       6.85954742
H        4.54451778      -5.35326685       8.71608714
H        1.46560398      -4.36609960       5.86429873
