185
Properties=species:S:1:pos:R:3 pbc="F F F"
C        0.00000000       0.00000000       0.00000000
C        0.88135284       0.88135284      -0.88135284
C        2.25983301       0.71337001      -0.86969535
C        3.06648485       1.51962296      -1.68291233
C        2.51763913       2.53713291      -2.47362287
C        1.11976867       2.64732601      -2.50573320
C        0.30286504       1.83568881      -1.71034431
N        3.27500182       3.33800943      -3.33020548
C        4.63617271       3.77065442      -2.95108837
H        5.14923633       3.01783165      -2.34765982
C        5.44302454       3.89819859      -4.23937500
C        5.48734620       5.08859477      -4.98046722
C        6.23712246       5.16658801      -6.15840423
C        6.93574186       4.05061173      -6.61216334
C        6.88345162       2.85278319      -5.90574630
C        6.13536551       2.77579530      -4.72993644
P        4.52966404       5.27628962      -1.89360682
O        3.69242841       6.37825507      -2.48145579
O        4.01711408       4.82030639      -0.43089775
C        4.83845930       3.99279410       0.36839984
C        6.24868595       4.57307557       0.55600566
C        7.11742519       3.55548008       1.30989429
C        6.17220643       5.87664158       1.37208451
C        6.86949506       4.86028385      -0.82051811
O        6.05203344       5.72786388      -1.58498638
H        2.72001506      -0.04999257      -0.24978003
H        4.13020836       1.31035765      -1.69206888
H        0.64405139       3.37509862      -3.15966010
H       -0.77630393       1.95651546      -1.75234759
H        2.74028106       4.13901371      -3.67515208
H        4.93901037       5.97424656      -4.66403652
H        6.26281134       6.10049876      -6.71429174
H        7.41188292       1.97354062      -6.26498548
H        6.08354723       1.82538491      -4.20122064
H        4.34065189       3.87222826       1.33705728
H        4.88731621       2.99856164      -0.08286224
H        7.19277534       2.61308108       0.75600431
H        6.69548419       3.32768943       2.29566278
H        8.13489676       3.93491041       1.46024106
H        5.55280620       6.63322068       0.87832332
H        7.16936608       6.30689186       1.51641589
H        5.74422434       5.69398590       2.36379737
H        7.84888380       5.33956551      -0.70986993
H        7.03392647       3.93594364      -1.38421498
C        7.70982793       4.13343621      -7.82358022
C        8.35812501       4.20280171      -8.83814187
Br       9.40636655       4.31495986     -10.47860223
C       -0.88135284      -0.88135284      -0.88135284
C       -0.31239164      -1.61984949      -1.91065725
C       -1.12203577      -2.43191384      -2.71507053
C       -2.51112653      -2.47613152      -2.54113686
C       -3.04987375      -1.76225699      -1.46069713
C       -2.24807180      -0.96105094      -0.63977543
N       -3.35362233      -3.29992087      -3.28967353
C       -3.08841667      -3.54728378      -4.72221505
H       -2.01818248      -3.55374132      -4.94280400
C       -3.59102820      -4.95276372      -5.03680619
C       -4.91028354      -5.20275167      -5.44337297
C       -5.33499214      -6.50590470      -5.72121786
C       -4.44822500      -7.57035449      -5.57993745
C       -3.14295666      -7.34658443      -5.15244001
C       -2.71960712      -6.04568609      -4.87580404
P       -3.80063022      -2.17443054      -5.72449972
O       -5.24485584      -1.88346096      -5.42382246
O       -2.85407475      -0.87890033      -5.53534314
C       -1.52914884      -0.90634608      -6.02735863
C       -1.46431506      -1.28693334      -7.51450747
C        0.00552514      -1.43386517      -7.93467096
C       -2.12627117      -0.18640918      -8.36408315
C       -2.19781507      -2.62004858      -7.73243337
O       -3.53623412      -2.55407192      -7.27457765
H        0.75824497      -1.58960531      -2.08844219
H       -0.62799545      -3.04112080      -3.46351864
H       -4.11382727      -1.82310292      -1.24187992
H       -2.70148268      -0.41270468       0.18162823
H       -4.33892712      -3.05935384      -3.15616589
H       -5.63418597      -4.39625498      -5.54685250
H       -6.35993192      -6.67688091      -6.04078902
H       -2.45200066      -8.17553143      -5.02287694
H       -1.70319817      -5.88853048      -4.51842414
H       -1.09758643       0.08782893      -5.86606536
H       -0.94082230      -1.60305114      -5.42486665
H        0.50851743      -2.21053258      -7.34783697
H        0.55564394      -0.49747075      -7.78568403
H        0.09147915      -1.70855777      -8.99248748
H       -3.17717606      -0.03676908      -8.09375843
H       -2.09059571      -0.43992574      -9.42932061
H       -1.61138641       0.77182878      -8.23485524
H       -2.22415360      -2.87651521      -8.79765042
H       -1.68667771      -3.44397444      -7.22343293
C       -4.88618032      -8.91124889      -5.86941516
C       -5.25296790     -10.03424795      -6.11185274
Br      -5.84603239     -11.85004245      -6.50385381
C       -0.88135284       0.88135284       0.88135284
C       -0.78388860       2.26396397       0.79504580
C       -1.59706108       3.07102115       1.60093791
C       -2.47490334       2.51399374       2.53949782
C       -2.59044952       1.11643686       2.56594149
C       -1.79529862       0.30049899       1.75310055
N       -3.33370614       3.27474974       3.33476085
C       -2.90599528       4.58552127       3.86639895
H       -2.23225875       5.10321773       3.17925132
C       -4.15306126       5.45795431       3.96958256
C       -4.95882180       5.47974414       5.11784225
C       -6.09614966       6.29157587       5.17438916
C       -6.44474503       7.07598939       4.07778250
C       -5.67355320       7.04869138       2.91973653
C       -4.53831108       6.23861310       2.86417308
P       -1.94572022       4.33456039       5.41927987
O       -2.64219514       3.47357126       6.43637286
O       -0.48938426       3.76341011       5.01552386
C        0.40095412       4.58107499       4.28273268
C        0.63185783       5.94378268       4.95383101
C        1.49064722       6.82182474       4.03183347
C        1.36496550       5.74799550       6.29373349
C       -0.72274499       6.62711942       5.20043262
O       -1.58049194       5.80908177       5.97530998
H       -0.09602006       2.72856843       0.09521403
H       -1.53529485       4.14338511       1.45395494
H       -3.31099854       0.64029643       3.22751513
H       -1.90374737      -0.77939507       1.80820682
H       -3.75380385       2.71771560       4.08292740
H       -4.72537286       4.86585176       5.98606883
H       -6.70335542       6.29812648       6.07611994
H       -5.95114445       7.64488963       2.05437495
H       -3.95866709       6.20851419       1.94297150
H        1.34606287       4.03496614       4.18691960
H        0.01189868       4.71096444       3.26967432
H        0.99773027       6.98125522       3.06632716
H        2.46325736       6.35625246       3.83451574
H        1.67447601       7.80630077       4.47774134
H        0.79445720       5.11769531       6.98446545
H        1.53871054       6.70977331       6.78877928
H        2.34053212       5.27356495       6.14138003
H       -0.58641750       7.57044597       5.74145576
H       -1.22157795       6.87491983       4.25758730
C       -7.61438578       7.91374079       4.13871779
C       -8.59395991       8.61535759       4.18975108
Br     -10.17784843       9.74981261       4.27226761
C        0.88135284      -0.88135284       0.88135284
C        1.79788526      -0.29839286       1.74662025
C        2.60214438      -1.10865071       2.55822505
C        2.54367011      -2.50581603       2.47890876
C        1.57185884      -3.06484457       1.63612446
C        0.75101804      -2.26458648       0.83329364
N        3.29429412      -3.35406476       3.29485785
C        4.67548534      -2.99970729       3.68272287
H        4.80337550      -1.91992498       3.79142732
C        4.92081125      -3.59354059       5.06624628
C        5.41697652      -4.89343925       5.24599242
C        5.62718947      -5.40408465       6.53084057
C        5.32854045      -4.62449663       7.64547986
C        4.81072197      -3.34234903       7.48891010
C        4.60164898      -2.83315034       6.20629794
P        5.83869054      -3.51251306       2.34835688
O        5.68517106      -4.94593112       1.92103709
O        5.67174224      -2.47721831       1.11935768
C        6.04602019      -1.12502132       1.29181204
C        7.48803486      -0.97672855       1.80099246
C        7.76932285       0.50367594       2.09736409
C        8.47401836      -1.47462462       0.72812052
C        7.66256437      -1.80132701       3.08640564
O        7.32637177      -3.16099288       2.87751904
H        1.88608920       0.78155721       1.81527054
H        3.25614175      -0.61108857       3.26540457
H        1.43993946      -4.14395504       1.59491561
H        0.01635370      -2.73264737       0.18355805
H        3.26399044      -4.32283674       2.96761966
H        5.64412312      -5.53606733       4.39710300
H        6.01816096      -6.41172642       6.64771447
H        4.55870508      -2.73638815       8.35531579
H        4.17276446      -1.83810717       6.09928117
H        5.92686828      -0.62465671       0.32429788
H        5.34325534      -0.64673372       1.97875103
H        7.08309998       0.89164261       2.85839475
H        7.64783224       1.11786982       1.19754842
H        8.79134740       0.64839193       2.46661063
H        8.30626865      -2.52695344       0.47448147
H        9.50933046      -1.37747734       1.07303425
H        8.37684796      -0.89203496      -0.19447005
H        8.70288274      -1.76603206       3.42940444
H        7.04927468      -1.40319650       3.90161391
C        5.54848383      -5.15059122       8.96776930
C        5.73268642      -5.59119545      10.07518672
Br       6.03052643      -6.30361521      11.86578701
