198
Properties=species:S:1:pos:R:3 pbc="F F F"
C        1.79125686       1.79125686      -1.79125686
C        3.16973704       1.62327404      -1.77959937
C        3.97638887       2.42952698      -2.59281636
C        3.42754316       3.44703693      -3.38352689
C        2.02967269       3.55723003      -3.41563722
C        1.21276906       2.74559284      -2.62024833
N        4.18490585       4.24791346      -4.24010950
C        5.54607674       4.68055844      -3.86099239
H        6.05914035       3.92773568      -3.25756384
C        6.35292856       4.80810261      -5.14927902
C        6.39725022       5.99849880      -5.89037125
C        7.14702648       6.07649203      -7.06830825
C        7.84564589       4.96051575      -7.52206736
Br       8.86156675       5.06921571      -9.11194703
C        7.79335564       3.76268721      -6.81565033
C        7.04526954       3.68569933      -5.63984047
P        5.43956806       6.18619365      -2.80351084
O        4.60233243       7.28815909      -3.39135981
O        4.92701811       5.73021042      -1.34080177
C        5.74836332       4.90269812      -0.54150419
C        7.15858997       5.48297960      -0.35389837
C        8.02732922       4.46538411       0.39999027
C        7.08211045       6.78654560       0.46218049
C        7.77939909       5.77018788      -1.73042213
O        6.96193746       6.63776790      -2.49489040
H        3.62991908       0.85991145      -1.15968406
H        5.04011238       2.22026167      -2.60197291
H        1.55395542       4.28500264      -4.06956412
H        0.13360009       2.86641949      -2.66225161
H        3.65018508       5.04891773      -4.58505610
H        5.84891439       6.88415059      -5.57394054
H        7.17271537       7.01040279      -7.62419576
H        8.32178695       2.88344465      -7.17488951
H        6.99345126       2.73528894      -5.11112466
H        5.25055592       4.78213228       0.42715326
H        5.79722023       3.90846566      -0.99276627
H        8.10267937       3.52298511      -0.15389972
H        7.60538821       4.23759346       1.38575876
H        9.04480078       4.84481443       0.55033704
H        6.46271023       7.54312471      -0.03158070
H        8.07927011       7.21679589       0.60651187
H        6.65412836       6.60388992       1.45389334
H        8.75878782       6.24946953      -1.61977396
H        7.94383049       4.84584766      -2.29411900
C       -1.79125686      -1.79125686      -1.79125686
C       -1.37252384      -3.07171764      -2.12836897
C       -2.18495047      -3.88078280      -2.93299895
C       -3.39474981      -3.40710388      -3.45625328
C       -3.81646707      -2.13100964      -3.05506324
C       -3.02080341      -1.32035013      -2.23745669
N       -4.25683702      -4.18839411      -4.22769767
C       -3.72294833      -5.17174257      -5.19293667
H       -2.78417905      -5.61211884      -4.84814198
C       -4.72432028      -6.32017767      -5.26581224
C       -5.80010100      -6.31969561      -6.16632365
C       -6.69904699      -7.39038606      -6.20239372
C       -6.53792459      -8.46226221      -5.32804221
Br      -7.75145755      -9.91006735      -5.38120458
C       -5.49278677      -8.46965947      -4.40924694
C       -4.59568347      -7.40098650      -4.37413936
P       -3.32741389      -4.32205799      -6.77980067
O       -4.45720553      -3.49569975      -7.32894605
O       -1.97868103      -3.46052813      -6.55882114
C       -0.75906038      -4.12859639      -6.30490886
C       -0.43730297      -5.18621192      -7.37195304
C        0.82035417      -5.96110997      -6.95196726
C       -0.18050068      -4.49977731      -8.72619758
C       -1.62152360      -6.15766727      -7.50081823
O       -2.82289142      -5.47068482      -7.80101953
H       -0.42857840      -3.46130902      -1.75962717
H       -1.85013498      -4.89542817      -3.11678381
H       -4.78245614      -1.74841226      -3.37765377
H       -3.37447675      -0.33220200      -1.95559245
H       -4.98516469      -3.62526373      -4.67373051
H       -5.96578010      -5.48991917      -6.85130625
H       -7.52233718      -7.37283286      -6.91214388
H       -5.37297639      -9.29495628      -3.71218844
H       -3.79768061      -7.40874502      -3.63343923
H        0.03012094      -3.36942414      -6.26623174
H       -0.80310297      -4.58331976      -5.31202943
H        0.67229489      -6.46272525      -5.98913383
H        1.68192965      -5.29141959      -6.84773298
H        1.07982754      -6.72883117      -7.69027454
H       -1.04870817      -3.92401313      -9.06469433
H        0.05050995      -5.23844705      -9.50161703
H        0.66900400      -3.81112090      -8.66200804
H       -1.44263137      -6.87977282      -8.30562712
H       -1.76222200      -6.73842713      -6.58314802
C       -1.79125686       1.79125686       1.79125686
C       -1.28588701       2.97577536       2.31094808
C       -2.09777569       3.78566714       3.11528938
C       -3.40042473       3.40074610       3.45693614
C       -3.90108995       2.22735559       2.87409441
C       -3.10447167       1.41908624       2.05505232
N       -4.26047372       4.19212666       4.22032842
C       -3.74200814       5.00651008       5.33910934
H       -2.73072468       5.37098627       5.14272892
C       -4.62399703       6.24708742       5.43922574
C       -5.78881588       6.27670484       6.22059954
C       -6.57327137       7.43262180       6.28593359
C       -6.20725280       8.56238716       5.55858905
Br      -7.26648721      10.12476430       5.65147797
C       -5.06996711       8.54490262       4.75682346
C       -4.28723756       7.39109008       4.69248169
P       -3.61552892       3.96170910       6.85203453
O       -4.87764774       3.21654464       7.18765895
O       -2.34450989       2.98060020       6.67292021
C       -1.04282718       3.52934784       6.62039061
C       -0.73800619       4.43073465       7.82672709
C        0.63076644       5.09758437       7.62590513
C       -0.70597831       3.58643063       9.11406663
C       -1.82492786       5.51129396       7.94378727
O       -3.11569004       4.93711709       8.04178864
H       -0.27192362       3.29188858       2.08570240
H       -1.68496112       4.73237147       3.44501438
H       -4.93094122       1.92530143       3.05227953
H       -3.52220844       0.51060903       1.62945372
H       -5.08753953       3.67238851       4.52423089
H       -6.11355465       5.40590364       6.78754723
H       -7.46875685       7.43622023       6.90233684
H       -4.78966249       9.41765958       4.17279903
H       -3.41425421       7.38378411       4.04182654
H       -0.33509728       2.69398351       6.57645415
H       -0.92863978       4.08413710       5.68567528
H        0.64349094       5.70739854       6.71565659
H        1.42648022       4.34914794       7.53455519
H        0.88172907       5.75264700       8.46836025
H       -1.66048555       3.08081804       9.29611204
H       -0.49026452       4.21222961       9.98706000
H        0.07137903       2.81655830       9.05894567
H       -1.66571501       6.12361623       8.83870007
H       -1.80201279       6.19394900       7.08783536
C        1.79125686      -1.79125686       1.79125686
C        3.04457193      -1.34195334       2.18608518
C        3.84974378      -2.14999546       2.99899297
C        3.44198843      -3.43403551       3.38208304
C        2.15062676      -3.83855916       3.01335403
C        1.33064065      -3.03239221       2.21557737
N        4.19030546      -4.25898951       4.22363384
C        5.66568480      -4.27920797       4.14273479
H        6.07181105      -3.30186756       3.87076126
C        6.18921017      -4.57682949       5.54427054
C        6.39601367      -5.88604760       6.00405899
C        6.87562607      -6.11934315       7.29685755
C        7.13751097      -5.04603830       8.14467973
Br       7.78947477      -5.36332392       9.88993080
C        6.91396653      -3.74082240       7.71690425
C        6.43576878      -3.50869066       6.42634989
P        6.19151374      -5.43272644       2.80503237
O        5.57774080      -6.80192386       2.90218667
O        5.89284645      -4.71786878       1.38731506
C        6.60969049      -3.55317762       1.02969753
C        8.13084678      -3.75344282       1.11117833
C        8.83164380      -2.41233582       0.84874343
C        8.58009824      -4.77560857       0.05076876
C        8.50393763      -4.26380729       2.51226418
O        7.80880149      -5.45599272       2.82980156
H        3.40159211      -0.36132741       1.88659508
H        4.79167195      -1.73328853       3.33738649
H        1.76231884      -4.79811721       3.34808613
H        0.33971287      -3.38293522       1.93962311
H        3.83081980      -5.21665440       4.23668472
H        6.18477810      -6.74830476       5.37392267
H        7.03466886      -7.14150928       7.63113577
H        7.09926029      -2.90026404       8.38059678
H        6.24204105      -2.48378136       6.11404246
H        6.31177269      -3.28344415       0.01031809
H        6.29392694      -2.72952608       1.67499914
H        8.53326805      -1.65947452       1.58682162
H        8.57980134      -2.02132536      -0.14390379
H        9.92173353      -2.51590209       0.90164255
H        8.09793512      -5.74922614       0.19025437
H        9.66349810      -4.93282035       0.09323568
H        8.33595538      -4.42669875      -0.95852920
H        9.57677054      -4.47989135       2.57136942
H        8.29212140      -3.51193554       3.27974021
C       -0.00445707       0.01189536      -1.78238275
H       -0.66409135       0.67374010      -2.43557963
H        0.65740317      -0.63156657      -2.45157240
C       -0.90989263      -0.90692880      -0.91072765
C        0.90977584       0.90977584      -0.90977584
C       -0.00465871       1.77757030       0.00794375
H       -0.66225468       2.44313916      -0.64384735
H        0.64322798       2.43503045       0.67728295
C       -1.78241447       0.00034974      -0.00472694
H       -2.45427497      -0.65498947       0.64260836
H       -2.43311707       0.67328779      -0.65473579
C       -0.91132561       0.90220522       0.91563759
C       -0.01476271      -0.02253852       1.78660255
H       -0.67934791      -0.69751639       2.42135241
H        0.63392994       0.61504881       2.47327442
C        0.01484550      -1.77751727      -0.01636693
H        0.67870853      -2.42144646      -0.68295456
H       -0.62264859      -2.45592969       0.64226336
C        1.78714474       0.01002794       0.00389507
H        2.44202412       0.67113390       0.66197326
H        2.45385902      -0.65136977      -0.64189061
C        0.91606151      -0.90478549       0.90901405
