182
Properties=species:S:1:pos:R:3 pbc="F F F"
C        1.79257874       1.79257874      -1.79257874
C        2.74634311       2.62109864      -1.21147065
C        3.54405941       3.43223547      -2.02559550
C        3.40491739       3.42908852      -3.42249670
C        2.43980315       2.57705351      -3.98035710
C        1.63490494       1.76438419      -3.17457580
C        4.22906831       4.29974889      -4.27344832
C        4.11612261       4.37484185      -5.76299284
C        4.93577746       5.61520502      -6.13276333
H        5.63365956       5.35045316      -6.93863018
C        4.02922307       6.74996394      -6.60455609
C        3.79688362       6.93239446      -7.97823588
C        2.94016586       7.93892575      -8.42942244
C        2.29986188       8.77208336      -7.51342892
C        2.51429307       8.59856676      -6.14725569
C        3.37021316       7.59232943      -5.69730904
N        5.68291882       5.91702931      -4.90435234
N        5.19418665       5.09489596      -3.77670421
C        6.83255177       6.70946851      -4.85976102
C        7.24569976       7.50599049      -5.93916550
C        8.40119222       8.29457888      -5.88037331
C        9.18022377       8.30068100      -4.72886815
C        8.78905269       7.52249633      -3.64333694
Br       9.84667929       7.52026617      -2.07324129
C        7.63018205       6.74596875      -3.70479327
H        2.88284977       2.65536161      -0.13573742
H        4.28504169       4.08400762      -1.56664912
H        2.30157912       2.54102764      -5.05598781
H        0.89392163       1.12334634      -3.64020282
H        3.07917559       4.43726543      -6.10900243
H        4.57033502       3.47896132      -6.20423277
H        4.28606877       6.28234756      -8.69877873
H        2.77181094       8.06847721      -9.49383121
H        1.63211270       9.55394077      -7.86112342
H        2.01895184       9.23878939      -5.42398027
H        3.53864683       7.44836267      -4.62937174
H        6.65503811       7.53558403      -6.84765657
H        8.67937856       8.90189594      -6.73583255
H       10.07728254       8.90901243      -4.68520448
H        7.33350473       6.14059481      -2.85282944
C       -1.79257874      -1.79257874      -1.79257874
C       -1.46307695      -1.98619254      -3.12964290
C       -2.28080549      -2.78823578      -3.93284911
C       -3.43145885      -3.40647332      -3.41857043
C       -3.73383199      -3.19913766      -2.06424411
C       -2.92418491      -2.39622330      -1.25345671
C       -4.30110539      -4.22995874      -4.27120139
C       -5.55779550      -4.89263906      -3.80352274
C       -6.23959003      -5.34563733      -5.09851843
H       -6.52171507      -6.40250130      -4.99852652
C       -7.49019696      -4.51512809      -5.37841805
C       -8.74840152      -4.98895006      -4.97016238
C       -9.90018766      -4.22758074      -5.18074566
C       -9.80865335      -2.98028892      -5.79643188
C       -8.56668098      -2.49336255      -6.20007200
C       -7.41628278      -3.25465231      -5.98891654
N       -5.18702559      -5.20372854      -6.11354634
N       -4.01759707      -4.48702428      -5.56116547
C       -5.20289383      -5.84360345      -7.35528403
C       -6.34446628      -6.48325006      -7.86313941
C       -6.34521651      -7.12158845      -9.10933944
C       -5.18960708      -7.13804733      -9.88211850
C       -4.04581348      -6.50688261      -9.40218986
Br      -2.46607084      -6.52899579     -10.44512013
C       -4.05452246      -5.86345829      -8.16296331
H       -0.58432954      -1.52337936      -3.56623990
H       -2.02309286      -2.93221251      -4.98039307
H       -4.61211983      -3.66108897      -1.62538577
H       -3.19279106      -2.25235006      -0.21232967
H       -6.19099586      -4.23036231      -3.20408528
H       -5.29843006      -5.76467379      -3.19042526
H       -8.82774178      -5.95692079      -4.48253249
H      -10.86529741      -4.60770442      -4.86111754
H      -10.70184843      -2.38562421      -5.95970425
H       -8.48199060      -1.52217269      -6.67755822
H       -6.44083899      -2.87728642      -6.29825584
H       -7.26658316      -6.47846010      -7.29323546
H       -7.25295675      -7.59697908      -9.46717122
H       -5.18973704      -7.63586945     -10.84589296
H       -3.15638335      -5.37460356      -7.79594208
C       -1.79257874       1.79257874       1.79257874
C       -2.69580179       2.67422112       1.20888948
C       -3.49364147       3.48477513       2.02347378
C       -3.40471162       3.42845202       3.42333897
C       -2.49013324       2.52372014       3.98336039
C       -1.68547163       1.71109089       3.17730241
C       -4.22821550       4.29813006       4.27591996
C       -4.16606109       4.31768952       5.77020668
C       -4.95511652       5.57305841       6.15557087
H       -5.69007859       5.30576895       6.92689536
C       -4.02738579       6.65773002       6.69862728
C       -3.83813937       6.78422524       8.08514935
C       -2.96387224       7.74332009       8.60132173
C       -2.26286531       8.58417181       7.73833704
C       -2.43418629       8.46568034       6.36024890
C       -3.30769090       7.50680778       5.84535294
N       -5.64701020       5.94360817       4.91368211
N       -5.14694575       5.14393531       3.77490577
C       -6.76628264       6.77770070       4.85779797
C       -7.19001565       7.55075696       5.95008314
C       -8.31476565       8.38170294       5.87967581
C       -9.05146434       8.45538167       4.70292689
C       -8.64882929       7.70163706       3.60441960
Br      -9.64910414       7.79139747       1.99968515
C       -7.52038429       6.88252430       3.67803547
H       -2.79250577       2.75044425       0.13099878
H       -4.19481135       4.17806648       1.56282061
H       -2.39177117       2.44567844       5.06114496
H       -0.98416909       1.02828999       3.64501171
H       -3.14060854       4.33103007       6.15380484
H       -4.66640093       3.42392411       6.16320406
H       -4.37490874       6.12760129       8.76468503
H       -2.82930138       7.82996146       9.67485652
H       -1.58138748       9.32919635       8.13659306
H       -1.89150981       9.11236640       5.67784530
H       -3.44271176       7.40589349       4.76777599
H       -6.63153592       7.52784933       6.87889347
H       -8.60222824       8.96869207       6.74618674
H       -9.92486120       9.09653363       4.65010462
H       -7.21451145       6.29669432       2.81572320
C        1.79257874      -1.79257874       1.79257874
C        1.38562574      -2.10922778       3.08405888
C        2.20318913      -2.91025816       3.88844309
C        3.43047690      -3.40563336       3.42039234
C        3.81062110      -3.07593594       2.11065673
C        3.00156233      -2.27289964       1.29940296
C        4.29783241      -4.22808000       4.27635311
C        5.63067750      -4.76373871       3.85954109
C        6.25216939      -5.26425068       5.16732573
H        6.61959885      -6.28813946       5.01500459
C        7.41377322      -4.37153982       5.59843006
C        8.72969659      -4.72372608       5.25409129
C        9.80308987      -3.90148807       5.60393612
C        9.57467229      -2.71374527       6.29695660
C        8.27422917      -2.34703691       6.63884944
C        7.20225059      -3.16905519       6.28854584
N        5.12327146      -5.27358949       6.10743951
N        3.94472342      -4.60105947       5.52000393
C        5.10022974      -6.00269084       7.29886072
C        6.24837684      -6.59716677       7.84531214
C        6.20986851      -7.32613752       9.04013837
C        5.00742969      -7.48194216       9.72040106
C        3.85575398      -6.89816721       9.20096476
Br       2.21291096      -7.10975372      10.11752208
C        3.90279783      -6.16400033       8.01414591
H        0.44598087      -1.74350438       3.48446355
H        1.88421146      -3.15063894       4.90084803
H        4.74990245      -3.44066359       1.70802853
H        3.33093303      -2.03234184       0.29419592
H        6.25256848      -4.01530086       3.35757411
H        5.48155167      -5.60304162       3.16893582
H        8.91591118      -5.64415907       4.70712481
H       10.81418640      -4.18773307       5.33219989
H       10.40675743      -2.07189780       6.56852166
H        8.08316173      -1.42301153       7.17554825
H        6.18180524      -2.88550166       6.54907434
H        7.20521168      -6.48466992       7.34839712
H        7.12355525      -7.76231424       9.43123756
H        4.97751393      -8.04986618      10.64411934
H        2.99828940      -5.71306372       7.61557586
C       -0.00445707       0.01189536      -1.78238275
H       -0.66409135       0.67374010      -2.43557963
H        0.65740317      -0.63156657      -2.45157240
C       -0.90989263      -0.90692880      -0.91072765
C        0.90977584       0.90977584      -0.90977584
C       -0.00465871       1.77757030       0.00794375
H       -0.66225468       2.44313916      -0.64384735
H        0.64322798       2.43503045       0.67728295
C       -1.78241447       0.00034974      -0.00472694
H       -2.45427497      -0.65498947       0.64260836
H       -2.43311707       0.67328779      -0.65473579
C       -0.91132561       0.90220522       0.91563759
C       -0.01476271      -0.02253852       1.78660255
H       -0.67934791      -0.69751639       2.42135241
H        0.63392994       0.61504881       2.47327442
C        0.01484550      -1.77751727      -0.01636693
H        0.67870853      -2.42144646      -0.68295456
H       -0.62264859      -2.45592969       0.64226336
C        1.78714474       0.01002794       0.00389507
H        2.44202412       0.67113390       0.66197326
H        2.45385902      -0.65136977      -0.64189061
C        0.91606151      -0.90478549       0.90901405
