161
Properties=species:S:1:pos:R:3 pbc="F F F"
C        0.00000000       0.00000000       0.00000000
C        0.88267471       0.88267471      -0.88267471
C        1.83643908       1.71119461      -0.30156662
C        2.63415539       2.52233145      -1.11569147
C        2.49501336       2.51918450      -2.51259267
C        1.52989913       1.66714949      -3.07045308
C        0.72500091       0.85448016      -2.26467178
C        3.31916428       3.38984487      -3.36354430
C        3.20621858       3.46493782      -4.85308881
C        4.02587343       4.70530099      -5.22285930
H        4.72375554       4.44054913      -6.02872616
C        3.11931905       5.84005992      -5.69465206
C        2.88697960       6.02249044      -7.06833185
C        2.03026183       7.02902173      -7.51951842
C        1.38995786       7.86217934      -6.60352489
C        1.60438905       7.68866274      -5.23735167
C        2.46030913       6.68242540      -4.78740502
N        4.77301480       5.00712528      -3.99444832
N        4.28428263       4.18499194      -2.86680019
C        5.92264774       5.79956449      -3.94985700
C        6.33579573       6.59608647      -5.02926147
C        7.49128819       7.38467486      -4.97046928
C        8.27031974       7.39077697      -3.81896412
C        7.87914866       6.61259230      -2.73343291
Br       8.93677527       6.61036215      -1.16333727
C        6.72027802       5.83606472      -2.79488925
H        1.97294574       1.74545759       0.77416660
H        3.37513767       3.17410360      -0.65674510
H        1.39167509       1.63112362      -4.14608379
H       -0.01598240       0.21344232      -2.73029880
H        2.16927157       3.52736141      -5.19909841
H        3.66043099       2.56905729      -5.29432875
H        3.37616475       5.37244353      -7.78887471
H        1.86190692       7.15857319      -8.58392719
H        0.72220868       8.64403674      -6.95121940
H        1.10904782       8.32888537      -4.51407624
H        2.62874281       6.53845864      -3.71946772
H        5.74513409       6.62568001      -5.93775255
H        7.76947453       7.99199192      -5.82592852
H        9.16737852       7.99910841      -3.77530045
H        6.42360070       5.23069079      -1.94292541
C       -0.88267471      -0.88267471      -0.88267471
C       -2.20768193      -1.11272421      -0.52879418
C       -3.00626413      -1.92874104      -1.33717314
C       -2.49985990      -2.52318226      -2.50374837
C       -1.16190094      -2.26638499      -2.83921576
C       -0.35413541      -1.45433866      -2.03567878
C       -3.33526492      -3.39872385      -3.33856467
C       -2.85764179      -4.09145605      -4.57514738
C       -3.96915525      -5.09893130      -4.88594717
H       -4.25217776      -4.99833891      -5.94251415
C       -3.50107709      -6.52878514      -4.62416880
C       -2.99382195      -7.30178008      -5.68219985
C       -2.52366319      -8.59758973      -5.45754906
C       -2.54867477      -9.13529633      -4.17169100
C       -3.04177800      -8.37801550      -3.11060995
C       -3.51101654      -7.08317803      -3.33594497
N       -5.08043461      -4.66615396      -4.02799982
N       -4.63368478      -3.63023634      -3.07215363
C       -6.41497517      -5.02558179      -4.23151227
C       -6.79863265      -6.04055015      -5.12196087
C       -8.14065405      -6.38931967      -5.31645860
C       -9.14036577      -5.71999590      -4.61969917
C       -8.78494391      -4.71257597      -3.72765400
Br     -10.13982684      -3.79197897      -2.77866888
C       -7.44406374      -4.37634541      -3.53082284
H       -2.63606472      -0.67473406       0.36656206
H       -4.04095841      -2.11154904      -1.05347891
H       -0.73133923      -2.70326419      -3.73427908
H        0.67809826      -1.28358993      -2.32226704
H       -1.88097053      -4.56916686      -4.44559399
H       -2.77515188      -3.36001301      -5.38865215
H       -2.96360963      -6.88745068      -6.68642267
H       -2.13609571      -9.18302379      -6.28528779
H       -2.18224614     -10.14136974      -3.99384894
H       -3.06342650      -8.78435148      -2.10423144
H       -3.89385302      -6.48370622      -2.50910994
H       -6.04462145      -6.59212597      -5.67181923
H       -8.39207175      -7.18629000      -6.00903323
H      -10.18013749      -5.98815693      -4.77349296
H       -7.17629631      -3.58754907      -2.83337152
C       -0.88267471       0.88267471       0.88267471
C       -1.15863866       0.49981251       2.19074916
C       -1.97437936       1.30866551       2.98913344
C       -2.52306049       2.50438933       2.49934071
C       -2.22050573       2.86846159       1.17853437
C       -1.40834899       2.06480329       0.37100057
C       -3.39858811       3.34031409       3.33365125
C       -4.04440112       4.60793370       2.87191040
C       -5.07346404       4.91645565       3.96411404
H       -4.95237578       5.96185836       4.27879669
C       -6.49636723       4.70691898       3.45074482
C       -7.22636202       5.79913125       2.95230862
C       -8.51426567       5.62305003       2.44148628
C       -9.08680708       4.35231845       2.41653656
C       -8.37220601       3.25787244       2.90032501
C       -7.08523003       3.43468893       3.41022059
N       -4.69473414       4.01734417       5.06251009
N       -3.67293019       3.04561109       4.61753348
C       -5.08526971       4.19477681       6.39202271
C       -6.08615504       5.10227742       6.77271121
C       -6.46648891       5.27020684       8.10973659
C       -5.84397801       4.52863064       9.10745220
C       -4.85145787       3.61898450       8.75473151
Br      -3.99444098       2.60889174      10.10714196
C       -4.48374785       3.44903889       7.41844526
H       -0.75685254      -0.41847861       2.60586279
H       -2.19323692       1.00243234       4.01031710
H       -2.62112943       3.78648788       0.76126520
H       -1.20153193       2.37419515      -0.64796836
H       -4.49827548       4.51790167       1.87955424
H       -3.28936962       5.40285832       2.83158909
H       -6.78452854       6.79198230       2.96097215
H       -9.06632950       6.47674773       2.06133006
H      -10.08679566       4.21222608       2.01844308
H       -8.80587350       2.26287668       2.88325925
H       -6.51898398       2.58163381       3.78605138
H       -6.60173462       5.68721046       6.01962156
H       -7.25120306       5.97751472       8.35867720
H       -6.13651269       4.66178068      10.14349400
H       -3.70688126       2.73752280       7.15281284
C        0.88267471      -0.88267471       0.88267471
C        1.23943881      -2.15635061       0.45341091
C        2.04016398      -2.96112736       1.27088696
C        2.49550257      -2.51107277       2.52021518
C        2.12588650      -1.21881604       2.92279916
C        1.32279448      -0.40742316       2.11393521
C        3.31770236      -3.36808624       3.38676484
C        3.81206495      -2.97082144       4.74135883
C        4.32901627      -4.28104320       5.34397426
H        5.34014089      -4.11371584       5.73917409
C        3.42002125      -4.76041862       6.47359116
C        3.73313660      -4.43945793       7.80520735
C        2.89469200      -4.83387272       8.85023726
C        1.72946437      -5.54873270       8.57746502
C        1.40141596      -5.86795647       7.26103103
C        2.23959704      -5.47312204       6.21742047
N        4.38707999      -5.19348580       4.19402261
N        3.72837001      -4.59393142       3.01377332
C        5.14473502      -6.36670692       4.16062730
C        5.72516493      -6.92639331       5.30958543
C        6.48313104      -8.10265163       5.26064966
C        6.68309366      -8.75022067       4.04674652
C        6.11408545      -8.21720086       2.89388757
Br       6.38569717      -9.08912721       1.23565030
C        5.35091825      -7.04927015       2.95104359
H        0.90536418      -2.54263785      -0.50376531
H        2.31199488      -3.95975901       0.93423248
H        2.45892136      -0.83032104       3.87964011
H        1.05071623       0.58376252       2.46080501
H        3.03757867      -2.50140768       5.35674503
H        4.63790073      -2.25748726       4.62842905
H        4.63567064      -3.87579217       8.02602018
H        3.15073713      -4.57973872       9.87393145
H        1.07506495      -5.85495162       9.38744825
H        0.49515965      -6.42132820       7.03552158
H        1.98619235      -5.71576880       5.18470802
H        5.57858242      -6.45520184       6.27478239
H        6.90710658      -8.50516727       6.17512113
H        7.27343490      -9.65947912       4.00887336
H        4.91179895      -6.63985066       2.04556729
