182
Properties=species:S:1:pos:R:3 pbc="F F F"
C        1.79226881       1.79226881      -1.79226881
C        2.97543414       1.28202280      -2.31648176
C        3.78357029       2.09276976      -3.12188916
C        3.42521566       3.41802182      -3.41306076
C        2.22458794       3.90364473      -2.87181995
C        1.41006717       3.10126331      -2.06606777
C        4.28313573       4.26699883      -4.25268993
N        4.03827450       5.57636657      -4.43985086
N        5.13181337       6.09629258      -5.27973432
C        5.34391905       7.45192264      -5.54387320
C        4.39735550       8.41020958      -5.14212924
C        4.56626359       9.77637947      -5.39198671
C        5.70219131      10.22209413      -6.05622632
C        6.65496928       9.29307021      -6.46297290
Br       8.20907949       9.88785218      -7.36716359
C        6.47981307       7.92874392      -6.21209282
C        6.04959899       5.01800675      -5.67714563
H        7.07273094       5.26812591      -5.36716483
C        5.56961897       3.81087158      -4.86452117
C        6.02523892       4.72495182      -7.16929099
C        4.88435723       4.94232468      -7.95783752
C        4.89001442       4.65428335      -9.32504903
C        6.03480572       4.12986775      -9.92348337
C        7.16946856       3.89117706      -9.15037481
C        7.15585917       4.18498388      -7.78683587
F        8.26182414       3.93338526      -7.07070235
H        3.28591005       0.26320247      -2.10911097
H        4.70563748       1.67887426      -3.51799521
H        1.92351139       4.92835536      -3.08151130
H        0.49150252       3.51578180      -1.66431510
H        3.50379536       8.07110865      -4.62316794
H        3.80543593      10.47653691      -5.06267563
H        5.83522229      11.28068709      -6.24933714
H        7.24262782       7.23308644      -6.54169832
H        5.43673666       2.91087561      -5.47548508
H        6.29560381       3.58243875      -4.07447384
H        3.98882554       5.34897945      -7.48639628
H        3.99646205       4.84337040      -9.91269078
H        6.03949424       3.90687625     -10.98592933
H        8.06703515       3.47767966      -9.59556109
C       -1.79226881      -1.79226881      -1.79226881
C       -1.59929068      -3.16981444      -1.80483357
C       -2.40651084      -3.97578984      -2.61592853
C       -3.41178048      -3.42139179      -3.42312598
C       -3.58408991      -2.02880649      -3.38715622
C       -2.78271525      -1.21490254      -2.57978046
C       -4.25041857      -4.27297751      -4.27942840
N       -5.12844536      -3.76384691      -5.16219967
N       -5.73114190      -4.90809674      -5.86860163
C       -6.55377679      -4.79365261      -6.99228548
C       -6.99585671      -3.53082484      -7.42301276
C       -7.82545745      -3.37099347      -8.53817885
C       -8.23572808      -4.48520572      -9.25957796
C       -7.81033451      -5.74654257      -8.85413531
Br      -8.36046077      -7.27329359      -9.83034091
C       -6.98274603      -5.90022916      -7.73767461
C       -5.23477785      -6.18240800      -5.32756552
H       -4.79232439      -6.78122194      -6.13447536
C       -4.12357150      -5.76120062      -4.36023960
C       -6.30705065      -6.99454238      -4.61788870
C       -7.40633801      -6.39398267      -3.98419875
C       -8.37050695      -7.16683071      -3.33200914
C       -8.24252025      -8.55450185      -3.29113474
C       -7.14707776      -9.16425912      -3.89968355
C       -6.19120405      -8.38500878      -4.55146609
F       -5.14440800      -9.00378065      -5.11772309
H       -0.82904807      -3.63258631      -1.19658911
H       -2.23796402      -5.04817464      -2.61636829
H       -4.35624566      -1.57299731      -4.00413507
H       -2.94591182      -0.14236065      -2.58332696
H       -6.68172762      -2.65256419      -6.86378014
H       -8.14076640      -2.37438093      -8.82950114
H       -8.87749042      -4.36285735     -10.12489875
H       -6.66929998      -6.89721313      -7.45089947
H       -4.21284058      -6.23441069      -3.37584607
H       -3.14543236      -6.02786339      -4.77922066
H       -7.50199756      -5.30791374      -4.01428997
H       -9.21654330      -6.67577104      -2.86020889
H       -8.99209458      -9.15505164      -2.78515361
H       -7.02609266     -10.24103903      -3.87314421
C       -1.79226881       1.79226881       1.79226881
C       -1.63705922       3.17431726       1.76256221
C       -2.44414117       3.98040036       2.57368769
C       -3.41174108       3.42169734       3.42285983
C       -3.54651047       2.02452966       3.42901249
C       -2.74495147       1.21046960       2.62197719
C       -4.25026225       4.27376029       4.27880195
N       -5.08993413       3.76578641       5.19877140
N       -5.70477371       4.91249363       5.89057293
C       -6.49351058       4.80703899       7.03916531
C       -6.88891064       3.54515935       7.51562432
C       -7.68358586       3.39392947       8.65711444
C       -8.10491187       4.51619524       9.35940467
C       -7.72546663       5.77683435       8.90871141
Br      -8.29108010       7.31460505       9.85841011
C       -6.93266756       5.92183435       7.76614790
C       -5.25840446       6.18426418       5.30208272
H       -4.81114030       6.81673827       6.08014311
C       -4.16235462       5.76651156       4.31614554
C       -6.37129779       6.94748350       4.60070044
C       -7.47021642       6.30042316       4.01387985
C       -8.47246144       7.02886866       3.36801670
C       -8.38390743       8.41781944       3.28642997
C       -7.28975856       9.07327457       3.84798731
C       -6.29563710       8.33819784       4.49384398
F       -5.25148132       9.00019078       5.01423964
H       -0.89645180       3.64064154       1.12113014
H       -2.30526030       5.05652431       2.54072235
H       -4.28898726       1.56535230       4.07903848
H       -2.87837481       0.13444200       2.65878261
H       -6.56580841       2.66056131       6.97170224
H       -7.96338380       2.39762623       8.98363844
H       -8.71962109       4.40057290      10.24505253
H       -6.65461942       6.91858410       7.44420906
H       -4.29099864       6.20984937       3.32224934
H       -3.18105119       6.07075587       4.70070935
H       -7.53506802       5.21342132       4.07571194
H       -9.31699233       6.50248062       2.93305028
H       -9.16304721       8.98387850       2.78537411
H       -7.19924888      10.15177135       3.78925566
C        1.79226881      -1.79226881       1.79226881
C        2.88176308      -1.23689175       2.45528386
C        3.69034056      -2.04738562       3.26050303
C        3.42555953      -3.41702394       3.41371477
C        2.31795138      -3.94786460       2.73423664
C        1.50378139      -3.14615525       1.92746162
C        4.28415925      -4.26448637       4.25417887
N        4.13896901      -5.60038844       4.31513449
N        5.20319259      -6.10240354       5.20224414
C        5.50970838      -7.45465030       5.37535621
C        4.68408475      -8.44677903       4.81883054
C        4.94974070      -9.81168759       4.97320148
C        6.06359346     -10.22150595       5.69541236
C        6.89751365      -9.25837726       6.25512148
Br       8.42049143      -9.80375638       7.23984745
C        6.62589251      -7.89570689       6.09905040
C        5.99023968      -4.99300988       5.76150180
H        7.05246340      -5.13357470       5.52198358
C        5.47397682      -3.76221374       5.00882116
C        5.82248445      -4.83247843       7.26451885
C        4.64565915      -5.20676306       7.93209722
C        4.51805257      -5.03806531       9.31322891
C        5.56233090      -4.47805433      10.04777160
C        6.72991914      -4.08442190       9.39667940
C        6.84983385      -4.25979244       8.01805264
F        7.98329189      -3.86052575       7.42209411
H        3.11875506      -0.18259429       2.35687413
H        4.53899277      -1.59735965       3.76615453
H        2.09061766      -5.00746653       2.83529386
H        0.65910902      -3.59603565       1.41645475
H        3.80859998      -8.13614230       4.25332968
H        4.28058942     -10.53897727       4.52508179
H        6.27161505     -11.27890846       5.81472301
H        7.29738162      -7.17275404       6.54727692
H        5.21601470      -2.93159126       5.67549139
H        6.23792554      -3.40971266       4.30487820
H        3.82870922      -5.64100262       7.35448943
H        3.60034727      -5.34733657       9.80483938
H        5.46353209      -4.34777453      11.12099320
H        7.55038208      -3.64096308       9.94893074
C       -0.00445707       0.01189536      -1.78238275
H       -0.66409135       0.67374010      -2.43557963
H        0.65740317      -0.63156657      -2.45157240
C       -0.90989263      -0.90692880      -0.91072765
C        0.90977584       0.90977584      -0.90977584
C       -0.00465871       1.77757030       0.00794375
H       -0.66225468       2.44313916      -0.64384735
H        0.64322798       2.43503045       0.67728295
C       -1.78241447       0.00034974      -0.00472694
H       -2.45427497      -0.65498947       0.64260836
H       -2.43311707       0.67328779      -0.65473579
C       -0.91132561       0.90220522       0.91563759
C       -0.01476271      -0.02253852       1.78660255
H       -0.67934791      -0.69751639       2.42135241
H        0.63392994       0.61504881       2.47327442
C        0.01484550      -1.77751727      -0.01636693
H        0.67870853      -2.42144646      -0.68295456
H       -0.62264859      -2.45592969       0.64226336
C        1.78714474       0.01002794       0.00389507
H        2.44202412       0.67113390       0.66197326
H        2.45385902      -0.65136977      -0.64189061
C        0.91606151      -0.90478549       0.90901405
