190
Properties=species:S:1:pos:R:3 pbc="F F F"
C        1.79226881       1.79226881      -1.79226881
C        2.97543414       1.28202280      -2.31648176
C        3.78357029       2.09276976      -3.12188916
C        3.42521566       3.41802182      -3.41306076
C        2.22458794       3.90364473      -2.87181995
C        1.41006717       3.10126331      -2.06606777
C        4.28313573       4.26699883      -4.25268993
N        4.03827450       5.57636657      -4.43985086
N        5.13181337       6.09629258      -5.27973432
C        5.34391905       7.45192264      -5.54387320
C        4.39735550       8.41020958      -5.14212924
C        4.56626359       9.77637947      -5.39198671
C        5.70219131      10.22209413      -6.05622632
C        6.65496928       9.29307021      -6.46297290
C        6.47981307       7.92874392      -6.21209282
C        6.04959899       5.01800675      -5.67714563
H        7.07273094       5.26812591      -5.36716483
C        5.56961897       3.81087158      -4.86452117
C        6.02523892       4.72495182      -7.16929099
C        4.88435723       4.94232468      -7.95783752
C        4.89001442       4.65428335      -9.32504903
C        6.03480572       4.12986775      -9.92348337
C        7.16946856       3.89117706      -9.15037481
C        7.15585917       4.18498388      -7.78683587
F        8.26182414       3.93338526      -7.07070235
H        3.28591005       0.26320247      -2.10911097
H        4.70563748       1.67887426      -3.51799521
H        1.92351139       4.92835536      -3.08151130
H        0.49150252       3.51578180      -1.66431510
H        3.50379536       8.07110865      -4.62316794
H        3.80543593      10.47653691      -5.06267563
H        5.83522229      11.28068709      -6.24933714
H        7.24262782       7.23308644      -6.54169832
H        5.43673666       2.91087561      -5.47548508
H        6.29560381       3.58243875      -4.07447384
H        3.98882554       5.34897945      -7.48639628
H        3.99646205       4.84337040      -9.91269078
H        6.03949424       3.90687625     -10.98592933
H        8.06703515       3.47767966      -9.59556109
C        7.83665979       9.74532141      -7.15048756
C        8.82632558      10.12408179      -7.72628109
Br      10.42653147      10.73650529      -8.65729052
C       -1.79226881      -1.79226881      -1.79226881
C       -1.29394946      -2.99314483      -2.28684441
C       -2.10269397      -3.79830741      -3.09722783
C       -3.41311558      -3.41793008      -3.42525258
C       -3.88856884      -2.20220075      -2.90928302
C       -3.08824501      -1.39073545      -2.09841780
C       -4.25430827      -4.26429068      -4.28422554
N       -5.46119000      -3.86724121      -4.72606073
N       -5.96902409      -4.94282398      -5.59599220
C       -7.10840591      -4.83380840      -6.39750058
C       -7.94921272      -3.71279086      -6.28769074
C       -9.10299747      -3.56631426      -7.06531804
C       -9.44596020      -4.54965885      -7.98489272
C       -8.62886003      -5.66863978      -8.11351258
C       -7.47796224      -5.81041763      -7.33226993
C       -5.04062003      -6.08317894      -5.62095240
H       -4.74922995      -6.30218810      -6.65660363
C       -3.81227953      -5.57170971      -4.86102249
C       -5.60835015      -7.33705537      -4.97407621
C       -6.55839745      -7.28417026      -3.94195173
C       -7.05437406      -8.45406742      -3.36090531
C       -6.59638117      -9.69749417      -3.79428149
C       -5.63970990      -9.76598029      -4.80533024
C       -5.15273313      -8.59293385      -5.38201194
F       -4.22517962      -8.69512883      -6.34560329
H       -0.28418329      -3.31706585      -2.05697434
H       -1.69497473      -4.72954612      -3.47798611
H       -4.90122291      -1.88322063      -3.14893451
H       -3.49235369      -0.45671257      -1.72253316
H       -7.69036743      -2.93840760      -5.56929692
H       -9.72028207      -2.68242325      -6.94194315
H      -10.33904127      -4.43691030      -8.58929495
H       -6.86374500      -6.69416835      -7.45949924
H       -3.46995862      -6.26695590      -4.08618283
H       -2.98409898      -5.40708961      -5.56132781
H       -6.91210310      -6.31001093      -3.60208725
H       -7.79741160      -8.38311265      -2.57199897
H       -6.98236975     -10.60649737      -3.34343270
H       -5.26606553     -10.72272728      -5.15148308
C       -8.97480819      -6.69247388      -9.06518669
C       -9.26453976      -7.54993493      -9.86221376
Br      -9.73301122      -8.93637694     -11.15093912
C       -1.79226881       1.79226881       1.79226881
C       -1.27059620       2.95641949       2.34692300
C       -2.07952463       3.76152950       3.15717508
C       -3.41338593       3.41750124       3.42541107
C       -3.91196647       2.23843588       2.84965027
C       -3.11165028       1.42735179       2.03839619
C       -4.25504033       4.26323598       4.28454817
N       -5.49018057       3.89485509       4.66945629
N       -5.99130685       4.95710992       5.55942350
C       -7.16198039       4.86143528       6.31629922
C       -8.03681477       3.77600097       6.13687858
C       -9.22231608       3.64426418       6.86804950
C       -9.56378331       4.60671704       7.81001142
C       -8.71337558       5.69031772       8.00731909
C       -7.53079078       5.81759181       7.27226722
C       -5.02524945       6.06165134       5.65785058
H       -4.76397666       6.23379206       6.71025297
C       -3.78884376       5.53296315       4.92320481
C       -5.52524009       7.35697341       5.03726822
C       -6.43868151       7.37439745       3.97144046
C       -6.87231027       8.58096311       3.41607342
C       -6.38722230       9.79119826       3.90973628
C       -5.46586112       9.78985066       4.95530866
C       -5.04117304       8.58061657       5.50588932
F       -4.14600590       8.61563945       6.50426639
H       -0.24252112       3.25149487       2.16420750
H       -1.65362261       4.66361699       3.58526735
H       -4.94310674       1.94805870       3.04221261
H       -3.53421917       0.52218356       1.61519670
H       -7.77934131       3.01827452       5.40045612
H       -9.86516001       2.78806290       6.69142557
H      -10.48148209       4.50529045       8.37847398
H       -6.89115435       6.67362941       7.45262881
H       -3.39476966       6.24196950       4.18635818
H       -2.99271598       5.31426473       5.64553569
H       -6.81360900       6.42606939       3.58452289
H       -7.58841035       8.56439649       2.59971638
H       -6.72478859      10.72869332       3.47881791
H       -5.07185352      10.71984962       5.34857276
C       -9.05757263       6.69219872       8.98269740
C       -9.34583766       7.53127406       9.79957674
Br      -9.81193783       8.88798791      11.12040154
C        1.79226881      -1.79226881       1.79226881
C        3.16094352      -1.55312459       1.85987059
C        3.96767849      -2.36429775       2.66625298
C        3.42321763      -3.42128253       3.41179809
C        2.03882417      -3.63622392       3.32500453
C        1.22417813      -2.83098725       2.52223288
C        4.27770668      -4.27503008       4.25008774
N        3.81113187      -5.37452576       4.86883431
N        4.95844155      -5.99314635       5.55625237
C        4.92825769      -7.25428850       6.15716869
C        3.71453106      -7.95190057       6.28326268
C        3.63764685      -9.21317494       6.88380798
C        4.78870017      -9.81517385       7.37663774
C        6.00308449      -9.14542993       7.26249798
C        6.07345263      -7.88423556       6.66296162
C        6.17123406      -5.17662644       5.39689087
H        6.97162373      -5.78321340       4.95318455
C        5.75611490      -4.09710439       4.39179243
C        6.65906338      -4.56115089       6.69926746
C        5.78657628      -4.24527379       7.75266936
C        6.26391479      -3.67155206       8.93387994
C        7.62229012      -3.39110414       9.07476258
C        8.49841156      -3.68187403       8.03073484
C        8.01349035      -4.25774791       6.85644067
F        8.88286790      -4.51515386       5.86788999
H        3.61686767      -0.74724517       1.29411064
H        5.03428025      -2.16565486       2.70257185
H        1.59098235      -4.44984337       3.89255233
H        0.15900340      -3.03252403       2.48007199
H        2.80753505      -7.48822692       5.90230999
H        2.67597505      -9.71032244       6.95835098
H        4.73097325     -10.79323911       7.84103416
H        7.03604096      -7.39178774       6.58958388
H        6.01768172      -3.08493972       4.72047591
H        6.24577797      -4.27950342       3.42723501
H        4.72378697      -4.46208512       7.63832918
H        5.56740429      -3.44838128       9.73673766
H        7.99330625      -2.94613945       9.99285412
H        9.55681228      -3.46523993       8.11822368
C        7.20204650      -9.76187364       7.76854862
C        8.20617718     -10.27814524       8.19236604
Br       9.82977157     -11.11291276       8.87764295
C       -0.00445707       0.01189536      -1.78238275
H       -0.66409135       0.67374010      -2.43557963
H        0.65740317      -0.63156657      -2.45157240
C       -0.90989263      -0.90692880      -0.91072765
C        0.90977584       0.90977584      -0.90977584
C       -0.00465871       1.77757030       0.00794375
H       -0.66225468       2.44313916      -0.64384735
H        0.64322798       2.43503045       0.67728295
C       -1.78241447       0.00034974      -0.00472694
H       -2.45427497      -0.65498947       0.64260836
H       -2.43311707       0.67328779      -0.65473579
C       -0.91132561       0.90220522       0.91563759
C       -0.01476271      -0.02253852       1.78660255
H       -0.67934791      -0.69751639       2.42135241
H        0.63392994       0.61504881       2.47327442
C        0.01484550      -1.77751727      -0.01636693
H        0.67870853      -2.42144646      -0.68295456
H       -0.62264859      -2.45592969       0.64226336
C        1.78714474       0.01002794       0.00389507
H        2.44202412       0.67113390       0.66197326
H        2.45385902      -0.65136977      -0.64189061
C        0.91606151      -0.90478549       0.90901405
