178
Properties=species:S:1:pos:R:3 pbc="F F F"
C        1.79115033       1.79115033      -1.79115033
C        1.30165880       3.00230477      -2.27024355
C        2.11291600       3.80695087      -3.07639809
C        3.41657415       3.40945513      -3.40587181
C        3.89314461       2.19177686      -2.91505879
C        3.08213745       1.38189135      -2.11100871
N        4.17068694       4.28704801      -4.21526302
C        5.46285059       4.10283950      -4.66985972
O        6.15678216       3.10345410      -4.51425193
C        6.03670212       5.22417461      -5.47869418
C        5.61945146       6.55429760      -5.32429682
C        6.19218169       7.56443103      -6.10079240
C        7.18568214       7.25313444      -7.02786367
C        7.61684911       5.92995117      -7.18652755
C        7.05309264       4.91901189      -6.39997642
C        8.67765585       5.65509749      -8.19845962
O        9.51881988       6.52182010      -8.39890324
N        8.55533691       4.44743721      -8.86319264
C        9.35630496       3.97555951      -9.92567043
C       10.50555531       4.62236128     -10.38399251
C       11.21999901       4.11563712     -11.47600380
C       10.78666259       2.95476262     -12.11027731
Br      11.73495895       2.28715322     -13.60190589
C        9.65457636       2.28713799     -11.65333687
C        8.94534865       2.79449083     -10.55954406
H        0.29558361       3.32991351      -2.02250312
H        1.70869174       4.74953518      -3.43665228
H        4.89504699       1.83792602      -3.13690268
H        3.47428165       0.43770318      -1.74227792
H        3.68087457       5.11651394      -4.52059719
H        4.87989406       6.83808953      -4.58063589
H        5.87544829       8.59726954      -5.97722148
H        7.63187349       8.04577866      -7.62736045
H        7.41281978       3.89498962      -6.47108862
H        7.74880153       3.87709261      -8.64576870
H       10.87622873       5.52877475      -9.91460669
H       12.10654604       4.64120641     -11.82060892
H        9.31131223       1.37904971     -12.14180815
H        8.06038657       2.25982787     -10.22481441
C       -1.79115033      -1.79115033      -1.79115033
C       -2.71037043      -1.20685612      -2.65698058
C       -3.51491263      -2.01807957      -3.46327276
C       -3.40451959      -3.41497138      -3.41241013
C       -2.47541536      -3.98525331      -2.53931158
C       -1.67118970      -3.17608413      -1.72776370
N       -4.24697702      -4.15767429      -4.26834666
C       -4.31924664      -5.53312659      -4.38317658
O       -3.71693864      -6.35600499      -3.70154456
C       -5.27543487      -6.05334837      -5.41078767
C       -5.62725717      -5.31840456      -6.55238415
C       -6.52029673      -5.85310976      -7.48399863
C       -7.05978978      -7.12289544      -7.28399504
C       -6.71084700      -7.87043704      -6.15204378
C       -5.80621337      -7.34120224      -5.22466535
C       -7.32462292      -9.21981715      -5.98677289
O       -7.57999814      -9.86245237      -6.99709270
N       -7.60485719      -9.58067674      -4.68043283
C       -8.26518686     -10.74931755      -4.24303049
C       -8.62332075     -11.80482596      -5.08376241
C       -9.32017081     -12.91011807      -4.58135106
C       -9.65688397     -12.96310792      -3.23171064
Br     -10.62239344     -14.44174292      -2.55988170
C       -9.28986917     -11.92864165      -2.37654040
C       -8.59037371     -10.82750231      -2.88150753
H       -2.80787939      -0.12605837      -2.71406248
H       -4.22391103      -1.53800068      -4.13296750
H       -2.34697334      -5.06035489      -2.46254745
H       -0.95660018      -3.64278814      -1.05487443
H       -4.89051310      -3.60748311      -4.81998948
H       -5.19171715      -4.34525148      -6.76165085
H       -6.78842738      -5.28804531      -8.37346663
H       -7.75219382      -7.53653482      -8.01628397
H       -5.48238179      -7.92830915      -4.36820707
H       -7.41503994      -8.89771373      -3.95890918
H       -8.37702486     -11.80116881      -6.14141650
H       -9.59615589     -13.71561518      -5.25659030
H       -9.54711591     -11.96380815      -1.32124603
H       -8.32044072     -10.02850858      -2.19607956
C       -1.79115033       1.79115033       1.79115033
C       -2.91499959       1.25079773       2.40840981
C       -3.71888386       2.06161111       3.21576999
C       -3.40434671       3.41359815       3.41395624
C       -2.27163424       3.93966684       2.78867917
C       -1.46689372       3.13165698       1.97648682
N       -4.26320949       4.15679941       4.25298907
C       -4.15749769       5.49469262       4.58335950
O       -3.33962816       6.29436925       4.14049078
C       -5.18746338       6.01531539       5.53679214
C       -5.82485727       5.19450397       6.47868464
C       -6.77519155       5.73239722       7.34981635
C       -7.08808827       7.08953177       7.28906021
C       -6.45331825       7.92174522       6.35826435
C       -5.49159745       7.38666179       5.49382171
C       -6.83317093       9.36396195       6.33408007
O       -7.15901520       9.89002839       7.39049962
N       -6.83829099       9.94816818       5.07950759
C       -7.24401268      11.26039622       4.75312601
C       -7.58331879      12.23050990       5.69808042
C       -8.02286977      13.49622178       5.29254840
C       -8.11962504      13.79553830       3.93653918
Br      -8.74016824      15.49426918       3.38958064
C       -7.76626532      12.84653227       2.98225363
C       -7.32396795      11.58407019       3.39134541
H       -3.17311185       0.20423622       2.27065217
H       -4.59020170       1.61586940       3.68880811
H       -1.98087495       4.97832424       2.91067650
H       -0.59148835       3.56387173       1.49890267
H       -5.06098571       3.64852568       4.60847431
H       -5.57281666       4.14278850       6.58301432
H       -7.26489452       5.09925127       8.08579352
H       -7.82670568       7.50424891       7.97405801
H       -4.94989625       8.02737303       4.80162874
H       -6.63013956       9.35263440       4.28888887
H       -7.51926504      12.03582165       6.76452348
H       -8.29001334      14.23221864       6.04612939
H       -7.83692286      13.07345266       1.92179457
H       -7.06011340      10.85687201       2.62804344
C        1.79115033      -1.79115033       1.79115033
C        1.33909176      -3.04520951       2.18990586
C        2.15026492      -3.84962436       2.99637568
C        3.41672309      -3.40895514       3.40622288
C        3.85611368      -2.14841582       2.99545076
C        3.04484073      -1.33886312       2.19133367
N        4.17424564      -4.28893797       4.20981436
C        5.43376180      -4.06764114       4.73414687
O        6.08514056      -3.03107217       4.65827545
C        6.02319627      -5.19908555       5.51728909
C        5.67807643      -6.53799648       5.28197297
C        6.26251945      -7.55697913       6.03790655
C        7.19618869      -7.24537852       7.02511304
C        7.55533224      -5.91295774       7.26503785
C        6.98026652      -4.89227383       6.49954060
C        8.55401324      -5.63871462       8.33848510
O        9.42586603      -6.47450067       8.53917652
N        8.34320129      -4.47139688       9.05136858
C        9.07080115      -4.01494937      10.17178439
C       10.22760101      -4.62956735      10.65474076
C       10.86583142      -4.14375207      11.80205645
C       10.34834790      -3.03594715      12.46740748
Br      11.19378541      -2.39811233      14.03212032
C        9.20760694      -2.39983003      11.98761425
C        8.57469315      -2.88594692      10.83874347
H        0.36242981      -3.40640481       1.87916563
H        1.77580400      -4.82606218       3.29301302
H        4.82853792      -1.75998045       3.28135732
H        3.40756083      -0.36097184       1.88573008
H        3.71145981      -5.15379661       4.45272928
H        4.98802846      -6.81931807       4.49127293
H        6.00194867      -8.59613018       5.85186047
H        7.65202932      -8.04464200       7.60834129
H        7.28657226      -3.85741453       6.63491123
H        7.52096499      -3.92892025       8.82177759
H       10.66271616      -5.49430407      10.16258994
H       11.75989660      -4.64400385      12.16446092
H        8.79888206      -1.53308191      12.50020612
H        7.68131710      -2.37702475      10.48668701
C       -0.00445707       0.01189536      -1.78238275
H       -0.66409135       0.67374010      -2.43557963
H        0.65740317      -0.63156657      -2.45157240
C       -0.90989263      -0.90692880      -0.91072765
C        0.90977584       0.90977584      -0.90977584
C       -0.00465871       1.77757030       0.00794375
H       -0.66225468       2.44313916      -0.64384735
H        0.64322798       2.43503045       0.67728295
C       -1.78241447       0.00034974      -0.00472694
H       -2.45427497      -0.65498947       0.64260836
H       -2.43311707       0.67328779      -0.65473579
C       -0.91132561       0.90220522       0.91563759
C       -0.01476271      -0.02253852       1.78660255
H       -0.67934791      -0.69751639       2.42135241
H        0.63392994       0.61504881       2.47327442
C        0.01484550      -1.77751727      -0.01636693
H        0.67870853      -2.42144646      -0.68295456
H       -0.62264859      -2.45592969       0.64226336
C        1.78714474       0.01002794       0.00389507
H        2.44202412       0.67113390       0.66197326
H        2.45385902      -0.65136977      -0.64189061
C        0.91606151      -0.90478549       0.90901405
