157
Properties=species:S:1:pos:R:3 pbc="F F F"
C        0.00000000       0.00000000       0.00000000
C        0.88124631       0.88124631      -0.88124631
C        0.39175478       2.09240075      -1.36033953
C        1.20301198       2.89704685      -2.16649407
C        2.50667013       2.49955111      -2.49596779
C        2.98324058       1.28187284      -2.00515476
C        2.17223343       0.47198733      -1.20110469
N        3.26078291       3.37714399      -3.30535899
C        4.55294656       3.19293548      -3.75995570
O        5.24687813       2.19355007      -3.60434790
C        5.12679810       4.31427058      -4.56879015
C        4.70954743       5.64439358      -4.41439280
C        5.28227766       6.65452701      -5.19088838
C        6.27577811       6.34323042      -6.11795965
C        6.70694508       5.02004715      -6.27662352
C        6.14318861       4.00910787      -5.49007240
C        7.76775183       4.74519346      -7.28855560
O        8.60891586       5.61191607      -7.48899922
N        7.64543288       3.53753319      -7.95328862
C        8.44640094       3.06565549      -9.01576641
C        9.59565129       3.71245726      -9.47408849
C       10.31009499       3.20573310     -10.56609978
C        9.87675857       2.04485860     -11.20037328
Br      10.82505492       1.37724919     -12.69200187
C        8.74467233       1.37723396     -10.74343285
C        8.03544463       1.88458681      -9.64964004
H       -0.61432041       2.42000949      -1.11259910
H        0.79878772       3.83963116      -2.52674826
H        3.98514296       0.92802200      -2.22699866
H        2.56437763      -0.47220084      -0.83237390
H        2.77097054       4.20660991      -3.61069317
H        3.96999003       5.92818550      -3.67073186
H        4.96554427       7.68736551      -5.06731746
H        6.72196947       7.13587464      -6.71745642
H        6.50291576       2.98508559      -5.56118459
H        6.83889751       2.96718858      -7.73586467
H        9.96632471       4.61887073      -9.00470266
H       11.19664201       3.73130238     -10.91070490
H        8.40140821       0.46914568     -11.23190413
H        7.15048255       1.34992385      -9.31491039
C       -0.88124631      -0.88124631      -0.88124631
C       -1.10903079      -0.52784980      -2.20761446
C       -1.91619135      -1.33875900      -3.01160253
C       -2.49716435      -2.50700045      -2.49802423
C       -2.25676783      -2.84831847      -1.16518188
C       -1.45241461      -2.03654566      -0.35636517
N       -3.28863585      -3.27303214      -3.38161792
C       -3.96132834      -4.44660363      -3.09790576
O       -4.05344818      -4.98947463      -2.00185330
C       -4.69093058      -5.07466965      -4.24425860
C       -4.29424555      -4.89640328      -5.57768499
C       -5.00709123      -5.51027711      -6.61032471
C       -6.11225953      -6.30774369      -6.31696496
C       -6.51436547      -6.50013656      -4.98911371
C       -5.79320210      -5.89627611      -3.95289067
C       -7.70819132      -7.35768311      -4.73562645
O       -7.91910823      -8.28960840      -5.50111451
N       -8.50274950      -6.95826402      -3.67524117
C       -9.73186692      -7.52382020      -3.27213571
C      -10.27323940      -8.68766161      -3.82129604
C      -11.52236993      -9.15910106      -3.40045688
C      -12.23192550      -8.46690354      -2.42316141
Br     -13.93051081      -9.08772669      -1.87606848
C      -11.69742082      -7.31639396      -1.85152436
C      -10.44728200      -6.85039706      -2.27199241
H       -0.66423573       0.37132736      -2.62537981
H       -2.07748040      -1.04266332      -4.04502341
H       -2.67912667      -3.74279610      -0.71824085
H       -1.28115226      -2.32171959       0.67832116
H       -3.39806518      -2.88287035      -4.30733809
H       -3.41212577      -4.31820405      -5.83857758
H       -4.69660533      -5.37945519      -7.64416673
H       -6.66151724      -6.78761890      -7.12616439
H       -6.05793226      -6.07764435      -2.91360934
H       -8.24053716      -6.10908420      -3.19232940
H       -9.74958996      -9.25625081      -4.58405733
H      -11.92763218     -10.06229816      -3.84871896
H      -12.24427433      -6.77177090      -1.08641278
H      -10.05316068      -5.94598450      -1.81617160
C       -0.88124631       0.88124631       0.88124631
C       -1.99513913       0.33667392       1.51268201
C       -2.79905324       1.14751658       2.31998307
C       -2.49444031       2.50377580       2.50397291
C       -1.37163065       3.03407192       1.86456561
C       -0.56692543       2.22599844       1.05240158
N       -3.35248047       3.24681555       3.34398987
C       -3.25543387       4.58834044       3.66206343
O       -2.44823898       5.39111267       3.20542446
C       -4.28168524       5.10834448       4.61982911
C       -4.90399673       4.29024848       5.57408860
C       -5.85146973       4.82749307       6.44873025
C       -6.17648912       6.18134976       6.37912929
C       -5.55680474       7.01091977       5.43589124
C       -4.59791329       6.47663885       4.56781674
C       -5.94919356       8.44959696       5.40271036
O       -6.27054644       8.98190911       6.45737559
N       -5.96997836       9.02296675       4.14330957
C       -6.38968795      10.32885541       3.80927947
C       -6.72925375      11.30411295       4.74883033
C       -7.18306405      12.56252318       4.33634064
C       -7.29389800      12.84937625       2.97871620
Br      -7.93359946      14.53802433       2.42268220
C       -6.94053976      11.89526427       2.02953511
C       -6.48398088      10.64015743       2.44553316
H       -2.24543505      -0.71318480       1.38603792
H       -3.66246908       0.69845791       2.80424014
H       -1.08875625       4.07616942       1.97523794
H        0.30065493       2.66152691       0.56367871
H       -4.14282296       2.73484694       3.71060373
H       -4.64207594       3.24164496       5.68518650
H       -6.32945865       4.19653919       7.19422940
H       -6.91278660       6.59563103       7.06688291
H       -4.06762276       7.11597443       3.86558875
H       -5.76345620       8.42247003       3.35602453
H       -6.65447570      11.11912142       5.81630098
H       -7.45009236      13.30265418       5.08590275
H       -7.02214648      12.11248076       0.96783077
H       -6.22039934       9.90871324       1.68620420
C        0.88124631      -0.88124631       0.88124631
C        0.90939484      -2.25740159       0.67769863
C        1.71904380      -3.06076908       1.48674001
C        2.50651163      -2.49569311       2.49998428
C        2.46812703      -1.11247110       2.68967005
C        1.65555245      -0.30570472       1.88406828
N        3.30275540      -3.37809665       3.26243385
C        4.14455065      -3.05221203       4.30907505
O        4.28836889      -1.94326652       4.81314069
C        4.90825588      -4.19005994       4.91154301
C        5.24411879      -5.34079651       4.18341851
C        5.96368685      -6.37175974       4.79224646
C        6.35559428      -6.25627981       6.12509408
C        6.03323906      -5.10910162       6.86127507
C        5.32373432      -4.06997104       6.24866353
C        6.47244468      -5.04380877       8.28524744
O        7.51935568      -5.60080863       8.58966684
N        5.59524352      -4.40034282       9.14066835
C        5.71076704      -4.27495606      10.54209973
C        6.82936719      -4.68016183      11.27266802
C        6.84792541      -4.56621456      12.66778789
C        5.74541970      -4.04082826      13.33574248
Br       5.75968067      -3.91378825      15.22083707
C        4.63065310      -3.61390248      12.62078356
C        4.61723932      -3.72594421      11.22648794
H        0.30964221      -2.71381173      -0.10516576
H        1.72553916      -4.13279388       1.30683409
H        3.05975509      -0.62331609       3.45709243
H        1.64087970       0.76803343       2.05170442
H        3.20128081      -4.35641406       3.03057876
H        4.99336929      -5.44423195       3.13130617
H        6.23159144      -7.26135721       4.22727860
H        6.92053536      -7.06156798       6.59319720
H        5.11137723      -3.14967029       6.78813843
H        4.72326169      -4.06950120       8.74918788
H        7.70908303      -5.09293846      10.78787661
H        7.72621444      -4.89650870      13.21592616
H        3.76700437      -3.20055544      13.13489820
H        3.73294281      -3.39236798      10.69000599
