162
Properties=species:S:1:pos:R:3 pbc="F F F"
C        1.79145515       1.79145515      -1.79145515
C        2.87226270       1.23498381      -2.46698124
C        3.67555611       2.04636996      -3.27566047
C        3.40951352       3.41899952      -3.41953842
C        2.31529870       3.95815125      -2.72586411
C        1.50891969       3.14886725      -1.91550028
C        4.26827152       4.22645089      -4.28906087
C        4.07048607       5.56126195      -4.58506179
S        5.26899350       6.11541932      -5.67851869
C        5.98309294       4.55023568      -5.67963392
N        5.37883703       3.66541886      -4.90906029
C        7.14836017       4.24938799      -6.47852858
S        8.09715724       2.84037502      -6.19849339
C        9.12054247       3.27688642      -7.50173197
C        8.67466480       4.44587692      -8.08675035
N        7.56786040       5.01212254      -7.47085648
C        9.29165178       5.07872088      -9.24951484
C        9.10435361       6.45264113      -9.46700413
C        9.66686073       7.08635038     -10.57967674
C       10.41717184       6.34539879     -11.48827553
C       10.60868289       4.97963594     -11.29536792
C       10.04651160       4.34821998     -10.18017127
H        3.10128261       0.17631601      -2.37739417
H        4.51564307       1.59356423      -3.79997722
H        2.06267665       5.01224375      -2.79655884
H        0.66576801       3.58890188      -1.38973873
H        3.30037200       6.23746540      -4.24586491
H        9.96926128       2.66058228      -7.76114194
H        8.51318761       7.04097412      -8.76672429
H        9.50744164       8.15143340     -10.72534500
H       11.18516329       4.39466883     -12.00804752
H       10.19349211       3.27729148     -10.06769708
C       10.99351146       6.99293657     -12.63811355
C       11.47619589       7.53524945     -13.60110290
Br      12.25665580       8.41212352     -15.15817522
C       -1.79145515      -1.79145515      -1.79145515
C       -1.53650164      -3.15561065      -1.88211546
C       -2.34872182      -3.95968783      -2.68917689
C       -3.42252776      -3.41282914      -3.41269455
C       -3.65828985      -2.03350735      -3.30751687
C       -2.84729674      -1.22552224      -2.50046824
C       -4.25555148      -4.29561847      -4.23261332
C       -5.38674543      -3.90648615      -4.92357822
S       -6.09697908      -5.25166449      -5.71428794
C       -4.84930467      -6.26413962      -5.09951825
N       -3.94959084      -5.64588441      -4.35784094
C       -4.81607609      -7.68089886      -5.37930178
S       -3.39792223      -8.62110589      -5.11699754
C       -4.23463812     -10.02057873      -5.64394400
C       -5.53994514      -9.70280296      -5.96454397
N       -5.85084152      -8.35603702      -5.84396088
C       -6.54220644     -10.66694568      -6.41073538
C       -7.64121400     -10.22130143      -7.16148344
C       -8.62774967     -11.11537317      -7.58976501
C       -8.52384970     -12.46434629      -7.26265018
C       -7.44559874     -12.92604337      -6.51204463
C       -6.45869775     -12.02980906      -6.08639605
H       -0.71506716      -3.60756788      -1.33235775
H       -2.13694260      -5.02627671      -2.74596522
H       -4.47164509      -1.55465521      -3.84517895
H       -3.05085651      -0.16014600      -2.43340610
H       -5.84669531      -2.93315026      -5.00385674
H       -3.73237410     -10.97646545      -5.68214595
H       -7.73672851      -9.16701487      -7.41714264
H       -9.46869291     -10.74532127      -8.17020587
H       -7.36566723     -13.97712522      -6.24508719
H       -5.64093019     -12.41469469      -5.48285578
C       -9.54024867     -13.38731903      -7.69699388
C      -10.39148282     -14.16030869      -8.06075673
Br     -11.76785643     -15.41016761      -8.64893050
C       -1.79145515       1.79145515       1.79145515
C       -1.52427526       3.15213225       1.89782024
C       -2.33652368       3.95625986       2.70480300
C       -3.42252555       3.41292471       3.41260121
C       -3.67052070       2.03703594       3.29175743
C       -2.85953698       1.22901257       2.48473767
C       -4.25494285       4.29583552       4.23300490
C       -5.39649267       3.91108313       4.90923401
S       -6.10139650       5.25542739       5.70610762
C       -4.83811738       6.26159867       5.11324649
N       -3.93723027       5.64179585       4.37429006
C       -4.79397351       7.67520916       5.40709406
S       -3.36435238       8.60406925       5.16760403
C       -4.19264030      10.00647130       5.70004925
C       -5.50400022       9.69832623       6.00496562
N       -5.82665952       8.35586884       5.86831106
C       -6.50122366      10.66782528       6.45083856
C       -7.61171516      10.22567792       7.18660579
C       -8.59371488      11.12513209       7.61404088
C       -8.47365992      12.47611794       7.30106830
C       -7.38376994      12.93451700       6.56539980
C       -6.40145134      12.03287156       6.14057995
H       -0.69322364       3.60135516       1.36041399
H       -2.11504920       5.02014388       2.77399145
H       -4.49363516       1.56095855       3.81688554
H       -3.07268124       0.16636009       2.40536728
H       -5.86654916       2.94153608       4.97561707
H       -3.68159318      10.95701902       5.75237330
H       -7.71985425       9.16995739       7.43107438
H       -9.44378323      10.75770111       8.18273570
H       -7.29113342      13.98729334       6.30945288
H       -5.57418920      12.41558250       5.54870896
C       -9.48530087      13.40470231       7.73455840
C      -10.33255016      14.18239172       8.09760636
Br     -11.70248061      15.43984972       8.68462420
C        1.79145515      -1.79145515       1.79145515
C        2.86030319      -1.23121381       2.48271075
C        3.66362330      -2.04265132       3.29131192
C        3.40950923      -3.41909565       3.41944658
C        2.32726150      -3.96197187       2.71008069
C        1.52089257      -3.15264958       1.89974506
C        4.26766757      -4.22665594       4.28945975
C        4.07998039      -5.56610318       4.57072624
S        5.27325933      -6.11930375       5.67036844
C        5.97213572      -4.54743203       5.69339479
N        5.36675886      -3.66103181       4.92552552
C        7.12672687      -4.24317498       6.50637488
S        8.06448496      -2.82248942       6.24905128
C        9.07950890      -3.26176336       7.55788858
C        8.63937789      -4.44057997       8.12733421
N        7.54405847      -5.01142090       7.49536005
C        9.25128751      -5.07870388       9.28989610
C        9.07521755      -6.45639642       9.49238490
C        9.63314082      -7.09542296      10.60432406
C       10.36750408      -6.35614143      11.52720066
C       10.54762986      -4.98680303      11.34925385
C        9.99008878      -4.35004193      10.23477214
H        3.07991585      -0.16958231       2.40549463
H        4.49422545      -1.58690984       3.82804924
H        2.08418569      -5.01907187       2.76822169
H        0.68711624      -3.59563654       1.36165583
H        3.31973222      -6.24634241       4.21762767
H        9.91969885      -2.63989243       7.83139422
H        8.49651121      -7.04356412       8.78081069
H        9.48264711      -8.16334471      10.73822822
H       11.11156570      -4.40326164      12.07305230
H       10.12777035      -3.27671567      10.13399464
C       10.93903618      -7.00922229      12.67630311
C       11.41769432      -7.55617750      13.63867642
Br      12.19164404      -8.44055783      15.19475266
C       -0.00445707       0.01189536      -1.78238275
H       -0.66409135       0.67374010      -2.43557963
H        0.65740317      -0.63156657      -2.45157240
C       -0.90989263      -0.90692880      -0.91072765
C        0.90977584       0.90977584      -0.90977584
C       -0.00465871       1.77757030       0.00794375
H       -0.66225468       2.44313916      -0.64384735
H        0.64322798       2.43503045       0.67728295
C       -1.78241447       0.00034974      -0.00472694
H       -2.45427497      -0.65498947       0.64260836
H       -2.43311707       0.67328779      -0.65473579
C       -0.91132561       0.90220522       0.91563759
C       -0.01476271      -0.02253852       1.78660255
H       -0.67934791      -0.69751639       2.42135241
H        0.63392994       0.61504881       2.47327442
C        0.01484550      -1.77751727      -0.01636693
H        0.67870853      -2.42144646      -0.68295456
H       -0.62264859      -2.45592969       0.64226336
C        1.78714474       0.01002794       0.00389507
H        2.44202412       0.67113390       0.66197326
H        2.45385902      -0.65136977      -0.64189061
C        0.91606151      -0.90478549       0.90901405
