133
Properties=species:S:1:pos:R:3 pbc="F F F"
C        0.00000000       0.00000000       0.00000000
C        0.88155113       0.88155113      -0.88155113
C        1.96235868       0.32507979      -1.55707721
C        2.76565209       1.13646593      -2.36575645
C        2.49960949       2.50909550      -2.50963440
C        1.40539467       3.04824723      -1.81596009
C        0.59901566       2.23896323      -1.00559625
C        3.35836749       3.31654686      -3.37915684
C        3.16058204       4.65135793      -3.67515776
S        4.35908948       5.20551530      -4.76861467
C        5.07318892       3.64033165      -4.76972990
N        4.46893301       2.75551484      -3.99915627
C        6.23845615       3.33948396      -5.56862455
S        7.18725322       1.93047100      -5.28858937
C        8.21063845       2.36698239      -6.59182794
C        7.76476077       3.53597290      -7.17684632
N        6.65795637       4.10221852      -6.56095246
C        8.38174776       4.16881685      -8.33961082
C        8.19444958       5.54273711      -8.55710011
C        8.75695671       6.17644636      -9.66977271
C        9.50726782       5.43549477     -10.57837151
Br      10.26371946       6.28539471     -12.08754566
C        9.69877886       4.06973191     -10.38546390
C        9.13660757       3.43831596      -9.27026724
H        2.19137859      -0.73358802      -1.46749014
H        3.60573905       0.68366021      -2.89007320
H        1.15277263       4.10233973      -1.88665482
H       -0.24413602       2.67899785      -0.47983471
H        2.39046798       5.32756137      -3.33596089
H        9.05935725       1.75067825      -6.85123792
H        7.60328358       6.13107010      -7.85682027
H        8.59753761       7.24152938      -9.81544098
H       10.27525926       3.48476481     -11.09814350
H        9.28358808       2.36738745      -9.15779305
C       -0.88155113      -0.88155113      -0.88155113
C       -2.26551130      -0.81990795      -0.75909643
C       -3.06914175      -1.62776761      -1.57096510
C       -2.50201867      -2.50377605      -2.51254466
C       -1.10332858      -2.55048725      -2.61578616
C       -0.29571540      -1.74312453      -1.80473522
C       -3.38300872      -3.31923733      -3.35182515
C       -2.96353819      -4.15430477      -4.36925478
S       -4.31089549      -4.88580688      -5.13651707
C       -5.36628516      -4.05701451      -4.05995080
N       -4.76141373      -3.28793763      -3.17425276
C       -6.80113549      -4.20037014      -4.14505903
S       -7.83640137      -3.71007074      -2.85984147
C       -9.19913030      -4.18813505      -3.78218343
C       -8.79672958      -4.66743151      -5.01341890
N       -7.42180857      -4.70351065      -5.19580813
C       -9.70479961      -5.12237607      -6.06299974
C       -9.23837999      -6.01859856      -7.03730825
C      -10.07666989      -6.46065654      -8.06584935
C      -11.38928843      -6.00190530      -8.12994037
Br     -12.52432697      -6.59047841      -9.52185446
C      -11.86971324      -5.10645273      -7.17780870
C      -11.02958200      -4.66716490      -6.14844388
H       -2.73303020      -0.15036839      -0.04188213
H       -4.15092983      -1.56434533      -1.46419730
H       -0.60868463      -3.20970109      -3.32338146
H        0.78515747      -1.79542412      -1.90442989
H       -1.96518885      -4.37010236      -4.71869903
H      -10.19611404      -4.08701260      -3.37814679
H       -8.21118917      -6.37859024      -7.00139454
H       -9.69160189      -7.15503005      -8.80787603
H      -12.89114852      -4.73714578      -7.22987326
H      -11.42486622      -3.95089629      -5.43300608
C       -0.88155113       0.88155113       0.88155113
C       -0.88854299       0.69612255       2.25985014
C       -1.69603465       1.50816781       3.06367201
C       -2.50331313       2.51260386       2.50242240
C       -2.48158536       2.67881896       1.10919767
C       -1.67437219       1.86778631       0.30141665
C       -3.32072567       3.34897671       3.38436881
C       -4.09057352       4.42079829       2.97572593
S       -4.84862395       5.16110939       4.32348609
C       -4.11664464       4.00280009       5.36380573
N       -3.36015258       3.11016788       4.75328366
C       -4.32148951       4.03165560       6.79341954
S       -3.93551586       2.68143948       7.78935824
C       -4.43456732       3.56428226       9.17059919
C       -4.84080162       4.83249962       8.80427876
N       -4.80609339       5.07618175       7.43885220
C       -5.29047424       5.86111624       9.73858494
C       -6.12109427       6.89474319       9.27844934
C       -6.55563940       7.90481954      10.14271683
C       -6.15491764       7.89055315      11.47566331
Br      -6.73336988       9.25701248      12.64627748
C       -5.32473729       6.87848263      11.95075475
C       -4.89290868       5.86779101      11.08449109
H       -0.27298237      -0.07062500       2.72292335
H       -1.68677442       1.35150232       4.14119572
H       -3.08602266       3.43667933       0.61906518
H       -1.67288242       2.01684519      -0.77503106
H       -4.24512131       4.82296881       1.98590011
H       -4.39678619       3.11292198      10.15156526
H       -6.43505139       6.92016516       8.23595740
H       -7.19866470       8.69386475       9.76197852
H       -5.00051587       6.86900531      12.98864638
H       -4.22733778       5.10383636      11.47759445
C        0.88155113      -0.88155113       0.88155113
C        0.46393848      -2.16548745       1.21508975
C        1.27644824      -2.97042453       2.02100170
C        2.51239868      -2.50444155       2.50149916
C        2.91100493      -1.20463044       2.15396662
C        2.10021987      -0.39605561       1.34729966
C        3.33675681      -3.38793152       3.32938286
C        4.60280977      -3.08956361       3.79472436
S        5.24074878      -4.41063061       4.68184005
C        3.78926067      -5.29104901       4.40294078
N        2.87640550      -4.64577732       3.70142130
C        3.61090381      -6.63550135       4.90015951
S        2.05662727      -7.37180031       4.97788601
C        2.77038731      -8.80075738       5.59830409
C        4.14014192      -8.64856649       5.68887160
N        4.60557557      -7.39428979       5.32126199
C        5.06157537      -9.68771522       6.14088484
C        6.31289756      -9.32107507       6.66031417
C        7.22551989     -10.29158884       7.08606705
C        6.89325794     -11.63974960       6.98812656
Br       8.12562194     -12.95568693       7.55535096
C        5.66013509     -12.02529244       6.46854714
C        4.74785052     -11.05225385       6.04508642
H       -0.48544534      -2.55437290       0.85635315
H        0.93557524      -3.97425172       2.26964550
H        3.85419978      -0.78978231       2.49778509
H        2.43129738       0.60648345       1.08988261
H        5.19536012      -2.19707802       3.66155210
H        2.15704804      -9.65381332       5.85041207
H        6.58658692      -8.26963415       6.73495288
H        8.18781261      -9.98180345       7.48489191
H        5.40038257     -13.07751142       6.38027357
H        3.80269701     -11.38322370       5.62284788
