194
Properties=species:S:1:pos:R:3 pbc="F F F"
C        6.29452625       5.41731986      -3.48178079
C        4.79980068       5.61344211      -3.65429267
C        4.15451131       4.38464617      -4.26685444
O        4.31282411       4.11802407      -5.45871821
C        3.31338011       3.48088104      -3.42214798
C        3.52433698       3.43731130      -2.02969289
C        2.75067265       2.60990532      -1.21488061
C        1.79190827       1.79190827      -1.79190827
C        1.61207950       1.78351999      -3.17399923
C        2.35050242       2.63049993      -4.02116547
N        2.03531921       2.70580584      -5.41771026
N        1.64862298       1.60621546      -6.15133796
C        0.37703831       1.00512320      -6.23022608
C       -0.77321168       1.37021732      -5.54724200
C       -1.88455151       0.52310287      -5.60520905
Br      -3.42273456       0.94088263      -4.58482239
C       -1.86498474      -0.65315290      -6.37326617
C       -0.73393335      -0.98299294      -7.12155290
C        0.35396327      -0.13223565      -7.03430035
C        1.65715324      -0.22984931      -7.67377962
O        1.97274542      -1.13568481      -8.43336957
C        2.49837746       1.00167320      -7.22551386
C        3.82170016       0.53455515      -6.61819482
O        2.68647796       1.99261265      -8.23043388
C        3.37942171       1.56412145      -9.39125057
H        6.74501912       6.30427265      -3.02524606
H        6.78198989       5.24799952      -4.44772122
H        6.51348718       4.55463744      -2.84424857
H        4.60522707       6.45646230      -4.32717880
H        4.33084158       5.88095476      -2.70355212
H        4.29353353       4.03587745      -1.55013774
H        2.90438958       2.60987598      -0.13872285
H        0.86293484       1.11847795      -3.58210425
H        2.75680133       3.26634513      -5.90789392
H       -0.78808779       2.27254792      -4.94357453
H       -2.72900071      -1.31347279      -6.38775847
H       -0.69638867      -1.88035426      -7.72985895
H        3.66217847      -0.04310677      -5.70122633
H        4.46987524       1.38606829      -6.38371371
H        4.37364874      -0.10592590      -7.31417858
H        3.43918344       2.41310643     -10.07907638
H        2.84498839       0.76111939      -9.90417340
H        4.40062035       1.25604489      -9.15399360
C       -4.88282513      -3.72485644      -6.58594533
C       -5.35528042      -3.55864665      -5.15360839
C       -4.39924844      -4.22471405      -4.18204944
O       -4.35486584      -5.45147920      -4.08322135
C       -3.49693103      -3.39054302      -3.32893509
C       -3.14018186      -2.09583916      -3.75532016
C       -2.30637119      -1.29138325      -2.97770414
C       -1.79190827      -1.79190827      -1.79190827
C       -2.09124024      -3.09149430      -1.38686419
C       -2.95630331      -3.91685483      -2.12900968
N       -3.36183839      -5.18930177      -1.60769514
N       -2.51186901      -6.00269879      -0.89160861
C       -2.15878093      -5.92343434       0.46982768
C       -2.56531093      -4.97239402       1.39345730
C       -1.94386820      -4.94600747       2.64611526
Br      -2.39799572      -3.58257215       3.87759741
C       -0.95926379      -5.88696915       2.99110442
C       -0.60307373      -6.89133855       2.08978567
C       -1.22604956      -6.88413900       0.85416060
C       -1.04359166      -7.77942654      -0.27806535
O       -0.26914791      -8.72670579      -0.27457648
C       -2.00267734      -7.31086665      -1.41202053
C       -1.20977579      -7.06793252      -2.69674182
O       -3.12988232      -8.15408571      -1.62555647
C       -2.83411981      -9.48514411      -2.01552981
H       -5.57254699      -3.22712975      -7.27486110
H       -4.83229677      -4.78343174      -6.86198211
H       -3.88555046      -3.29674338      -6.73007935
H       -6.33661814      -4.02905691      -5.02319312
H       -5.50058215      -2.50213878      -4.91262754
H       -3.49388682      -1.68782598      -4.69783592
H       -2.06468755      -0.28330807      -3.30499279
H       -1.65567675      -3.44560492      -0.46223537
H       -3.88149566      -5.71423693      -2.33530781
H       -3.31769281      -4.23661520       1.12627334
H       -0.46831345      -5.83722465       3.96025313
H        0.14734747      -7.63532156       2.33485806
H       -0.49446935      -6.24666256      -2.57916611
H       -1.87701257      -6.83016924      -3.53247542
H       -0.63944854      -7.95715684      -2.98529604
H       -3.78193725     -10.02005886      -2.12937015
H       -2.25072285     -10.00649780      -1.25306052
H       -2.31929545      -9.51236932      -2.97899407
C       -6.64852779       4.70782617       3.83727294
C       -5.26150487       5.25335432       3.55267627
C       -4.19328125       4.40112987       4.21160080
O       -4.01886303       4.44061636       5.43008700
C       -3.33591664       3.50020074       3.38029176
C       -3.81525763       3.03726453       2.13881902
C       -3.03567788       2.20196488       1.33781581
C       -1.79190827       1.79190827       1.79190827
C       -1.32989445       2.19668237       3.04302191
C       -2.07487399       3.06655672       3.86073712
N       -1.50538531       3.58234250       5.07110749
N       -0.68960621       2.82988891       5.88668129
C        0.68432977       2.55429455       5.74242280
C        1.52195952       2.95403626       4.71217091
C        2.80770356       2.40797350       4.64349047
Br       3.92440770       2.84733270       3.18004545
C        3.26993986       1.50735876       5.61770962
C        2.45452340       1.16247865       6.69667136
C        1.18364765       1.70895414       6.73072148
C        0.12067724       1.51645943       7.70530136
O        0.22975696       0.80524498       8.69494216
C       -1.09774267       2.37456942       7.25325243
C       -2.34178274       1.49266370       7.14000369
O       -1.33168093       3.53824345       8.03960012
C       -1.62204582       3.30477258       9.40797533
H       -7.40825258       5.32228215       3.34400310
H       -6.85719045       4.70817010       4.91235008
H       -6.75439027       3.67858992       3.47939300
H       -5.16577614       6.26857880       3.95451323
H       -5.09365278       5.34546476       2.47623092
H       -4.80095828       3.30754751       1.77104293
H       -3.40650541       1.87774578       0.36873722
H       -0.36003508       1.84036629       3.36311566
H       -2.23189379       4.08993442       5.60921218
H        1.16419655       3.64096322       3.95126800
H        4.26358166       1.07290624       5.53596040
H        2.79062359       0.47670679       7.46703283
H       -2.22825628       0.73499465       6.35704709
H       -3.23084060       2.09245360       6.91636303
H       -2.54004522       0.96369459       8.07816160
H       -1.76367307       4.27613060       9.89156260
H       -0.79438155       2.80212230       9.91377733
H       -2.54757627       2.73617936       9.52690321
C        4.16035987      -4.30913037       6.72413667
C        4.87079353      -3.62677096       5.56997096
C        4.39640255      -4.17308077       4.23652860
O        4.73891558      -5.29353587       3.85711494
C        3.50316307      -3.34857506       3.36467101
C        2.69467513      -2.35132685       3.94533920
C        1.85694275      -1.56135174       3.15716408
C        1.79190827      -1.79190827       1.79190827
C        2.54371962      -2.81283149       1.21304762
C        3.42458501      -3.60477723       1.97280557
N        4.29307665      -4.54244829       1.32331036
N        3.90347882      -5.27720086       0.22549673
C        3.85675267      -4.88124962      -1.12561471
C        4.16075174      -3.63449866      -1.65100276
C        3.85597158      -3.37978774      -2.99199891
Br       4.15151142      -1.64852406      -3.69706502
C        3.29586012      -4.37256798      -3.81329958
C        3.05933960      -5.65101959      -3.30573258
C        3.35945495      -5.86916520      -1.97259219
C        3.20050361      -7.07547094      -1.17489100
O        2.76107286      -8.12775967      -1.61840235
C        3.69961291      -6.75983243       0.26611917
C        2.60391124      -7.09029351       1.28024538
O        4.94756048      -7.35388289       0.60808113
C        4.97790543      -8.77156841       0.58531989
H        4.50022311      -3.89548329       7.67883144
H        4.36369858      -5.38521715       6.72879490
H        3.07544488      -4.17707007       6.65985824
H        5.95030176      -3.80573540       5.63283101
H        4.74826340      -2.54173073       5.62535433
H        2.69207757      -2.17097214       5.01649901
H        1.26201833      -0.77541883       3.61555125
H        2.45037901      -2.96670178       0.14643625
H        4.76775444      -5.12831028       2.03497567
H        4.58302530      -2.86136193      -1.01635257
H        3.04197856      -4.15053026      -4.84722384
H        2.63635791      -6.43785731      -3.92109920
H        1.72361119      -6.45274825       1.14393859
H        2.96666443      -6.96646153       2.30653126
H        2.27163765      -8.12906255       1.18120121
H        5.99062996      -9.08996035       0.85077595
H        4.76024157      -9.16168962      -0.41165002
H        4.29206316      -9.19607783       1.32251785
C       -0.00445707       0.01189536      -1.78238275
H       -0.66409135       0.67374010      -2.43557963
H        0.65740317      -0.63156657      -2.45157240
C       -0.90989263      -0.90692880      -0.91072765
C        0.90977584       0.90977584      -0.90977584
C       -0.00465871       1.77757030       0.00794375
H       -0.66225468       2.44313916      -0.64384735
H        0.64322798       2.43503045       0.67728295
C       -1.78241447       0.00034974      -0.00472694
H       -2.45427497      -0.65498947       0.64260836
H       -2.43311707       0.67328779      -0.65473579
C       -0.91132561       0.90220522       0.91563759
C       -0.01476271      -0.02253852       1.78660255
H       -0.67934791      -0.69751639       2.42135241
H        0.63392994       0.61504881       2.47327442
C        0.01484550      -1.77751727      -0.01636693
H        0.67870853      -2.42144646      -0.68295456
H       -0.62264859      -2.45592969       0.64226336
C        1.78714474       0.01002794       0.00389507
H        2.44202412       0.67113390       0.66197326
H        2.45385902      -0.65136977      -0.64189061
C        0.91606151      -0.90478549       0.90901405
