185
Properties=species:S:1:pos:R:3 pbc="F F F"
C        0.00000000       0.00000000       0.00000000
C        1.68594024       5.34456163      -2.44172354
O        1.29029859       4.42201381      -1.43774615
C        1.54229104       3.09190047      -1.64403908
C        0.76570951       2.26715903      -0.81528744
C        0.88151031       0.88151031      -0.88151031
C        1.78291296       0.29649148      -1.76206551
C        2.56922657       1.10714852      -2.58375799
C        2.46838678       2.50611896      -2.52337535
O        3.20183769       3.28434629      -3.38147117
C        4.60025287       3.00261477      -3.37454602
C        5.32742048       4.05506022      -4.20514056
O        6.04724104       4.90901161      -3.69024805
N        5.12448598       3.89457549      -5.56936385
N        5.79687012       4.67687265      -6.46898667
C        5.67164747       4.36420578      -7.72019055
C        6.31256183       5.05042115      -8.83473779
C        7.16186936       6.14348049      -8.78920273
C        7.68084011       6.60969312      -9.99847849
C        8.65988196       7.74803184     -10.01797007
C        7.33339758       5.95472576     -11.19972022
C        6.46784072       4.84407617     -11.21850040
C        5.95571926       4.37913829     -10.01273861
N        5.10860514       3.28800284      -9.69460080
C        4.59030897       2.31336933     -10.61415545
C        4.88861254       3.21378562      -8.33123093
O        4.24274197       2.41946516      -7.67219568
H        1.20944019       6.30280818      -2.21072968
H        1.33617090       5.03726958      -3.43218294
H        2.76706510       5.50749506      -2.42012076
H        0.05505229       2.72452490      -0.13037276
H        1.87150553      -0.78452677      -1.82943324
H        3.23723651       0.62307388      -3.28948570
H        4.81233360       2.02677057      -3.82585176
H        5.00317262       3.02384760      -2.35431913
H        4.50806056       3.15542514      -5.91640980
H        7.41749032       6.60497796      -7.83871243
H        8.56490220       8.32926113     -10.94132048
H        9.68130588       7.36073288      -9.94779123
H        8.48344752       8.43235066      -9.18174316
H        7.75562418       6.32118835     -12.13598803
H        4.00021069       1.56228985     -10.07941936
H        5.41990019       1.79817819     -11.10639868
H        3.93762229       2.80082886     -11.34211679
C        6.18464585       4.27468481     -12.51047337
C        5.94747014       3.79781955     -13.59250072
Br       5.56397708       3.02676875     -15.34204745
C       -5.15591346      -1.30082601      -3.01548595
O       -4.04979994      -0.53044569      -2.56981292
C       -2.91987085      -1.19110262      -2.16725713
C       -2.07979947      -0.38322590      -1.38513062
C       -0.88151031      -0.88151031      -0.88151031
C       -0.49388778      -2.18588597      -1.16169620
C       -1.31609430      -2.99577717      -1.94826161
C       -2.52408451      -2.50506241      -2.46873416
O       -3.34868821      -3.33318797      -3.18577896
C       -2.70710919      -3.99699548      -4.27330900
C       -3.75806886      -4.72112996      -5.10842244
O       -4.07248928      -4.33952955      -6.23448187
N       -4.25287862      -5.85594090      -4.47960580
N       -5.11580086      -6.69291642      -5.13401216
C       -5.40984926      -7.80626757      -4.53992698
C       -6.28960606      -8.84228545      -5.06582927
C       -6.97131931      -8.85185396      -6.27137932
C       -7.73608967      -9.98031291      -6.57260914
C       -8.44749751     -10.08780027      -7.89058610
C       -7.77717024     -11.05381156      -5.65686175
C       -7.07362047     -11.01932520      -4.43747163
C       -6.30949096      -9.89642150      -4.14168370
N       -5.47538021      -9.57400829      -3.04182028
C       -5.17067687     -10.42333544      -1.92382144
C       -4.89855125      -8.32796317      -3.20711468
O       -4.11926913      -7.71279249      -2.50234119
H       -6.01871529      -0.62948114      -3.07478163
H       -5.40817084      -2.09334417      -2.30410841
H       -4.98097541      -1.69220597      -4.02149954
H       -2.38600152       0.63602342      -1.15997185
H        0.43384040      -2.58741128      -0.76284113
H       -1.00774640      -4.02252299      -2.11952670
H       -1.99697918      -4.75151623      -3.91646051
H       -2.18086368      -3.28227019      -4.91820548
H       -3.93724033      -6.10409061      -3.53856456
H       -6.89540055      -8.01037108      -6.95540907
H       -9.36455808     -10.67840046      -7.79252527
H       -7.79506567     -10.56797089      -8.62679344
H       -8.73404920      -9.09934747      -8.26414467
H       -8.36824195     -11.93456454      -5.90999407
H       -4.46528549      -9.92650674      -1.25012767
H       -4.69970288     -11.34319340      -2.28158078
H       -6.08247345     -10.63690807      -1.36118643
C       -7.20849184     -12.17384156      -3.58747063
C       -7.32144661     -13.14074901      -2.87559480
Br      -7.50408493     -14.70415657      -1.72455178
C       -3.07551639       1.26819867       5.12851035
O       -1.99416142       0.84331990       4.31257723
C       -1.91855874       1.32627348       3.03339837
C       -1.08263917       0.54763401       2.21788282
C       -0.88151031       0.88151031       0.88151031
C       -1.49660401       2.00385914       0.34100679
C       -2.32166899       2.79282532       1.14563877
C       -2.52859848       2.47252536       2.49675724
O       -3.39123982       3.22151728       3.25489805
C       -3.12270766       4.62236252       3.23234348
C       -4.00864269       5.31887480       4.26010377
O       -3.55211669       5.79743050       5.29695351
N       -5.33685281       5.39001581       3.86155670
N       -6.24982441       6.08645771       4.60644733
C       -7.42917607       6.23592247       4.09094526
C       -8.53865108       6.95476086       4.70430883
C       -8.56164473       7.60706442       5.92584344
C       -9.74226795       8.25756142       6.28918235
C       -9.81697307       9.04078347       7.56812733
C      -10.84537169       8.23378778       5.40868408
C      -10.79567552       7.56355729       4.17118448
C       -9.61766134       6.92015523       3.80977960
N       -9.24112792       6.20460260       2.64547827
C      -10.03899419       6.01263172       1.46620784
C       -7.93566703       5.75793243       2.74002964
O       -7.25042837       5.13214432       1.95183013
H       -3.09448339       0.61877297       6.00972170
H       -4.03628253       1.15188462       4.61745626
H       -2.92026124       2.29074356       5.48367613
H       -0.60606241      -0.33496631       2.63885386
H       -1.35522393       2.26544339      -0.70425531
H       -2.82014550       3.64172741       0.68792319
H       -3.35473991       5.05681881       2.25339721
H       -2.07376930       4.82825887       3.47931118
H       -5.63512181       4.96458402       2.98018968
H       -7.68156614       7.61569511       6.56391945
H      -10.83301414       9.02585454       7.97661512
H       -9.52503632      10.07976401       7.38502967
H       -9.15316560       8.61615283       8.32822291
H      -11.75735404       8.75644706       5.69899946
H       -9.47390486       5.45677507       0.71123997
H      -10.29993425       6.98511224       1.03943058
H      -10.93259970       5.43471836       1.71324989
C      -11.99259088       7.60554753       3.37166561
C      -12.99500750       7.64071436       2.70206855
Br     -14.61583039       7.69757615       1.61938674
C        0.93284458      -4.40759586       4.13178498
O        0.39509955      -3.77456349       2.98039551
C        1.11377781      -2.76262511       2.40182766
C        0.32592975      -1.96328350       1.55894274
C        0.88151031      -0.88151031       0.88151031
C        2.23245430      -0.58858793       1.02042772
C        3.02898176      -1.38361830       1.84753302
C        2.48429420      -2.48185081       2.53173608
O        3.26641476      -3.21289992       3.38834046
C        4.47981007      -3.68894854       2.80865506
C        5.15819752      -4.64687823       3.78254550
O        5.21713116      -5.85715738       3.57221215
N        5.72827056      -3.99325149       4.86690327
N        6.48063152      -4.68410373       5.77799419
C        7.10388327      -3.98149859       6.67066194
C        7.96837022      -4.51243450       7.71691606
C        8.29335832      -5.83557690       7.96561736
C        9.17493854      -6.09830104       9.01577214
C        9.62333724      -7.50297742       9.29956921
C        9.69954230      -5.02316307       9.76513818
C        9.35344989      -3.68593922       9.49102819
C        8.47877097      -3.42659326       8.44223194
N        7.97252763      -2.21865026       7.90003089
C        8.31673225      -0.88674272       8.31435879
C        7.13386192      -2.47025761       6.82950956
O        6.52732788      -1.70853873       6.09853620
H        0.13549202      -5.01415171       4.57333433
H        1.24223824      -3.67738368       4.88600149
H        1.74495087      -5.08823607       3.86149399
H       -0.73327929      -2.18822450       1.45500474
H        2.67235629       0.26109841       0.50515413
H        4.07244510      -1.10926673       1.96808426
H        5.17951912      -2.86735487       2.61808194
H        4.28694649      -4.22394762       1.87044523
H        5.63313742      -2.97952202       4.96723606
H        7.88023712      -6.63076347       7.35018012
H        9.82992484      -7.63911984      10.36643913
H       10.53312681      -7.72420763       8.73249556
H        8.84955128      -8.22607009       9.02191998
H       10.39688816      -5.24126274      10.57464967
H        7.80422415      -0.14946611       7.68822964
H        9.39326371      -0.73437596       8.19683739
H        8.00379149      -0.72783520       9.34894126
C        9.94898603      -2.68408278      10.33673522
C       10.44774755      -1.84502801      11.04501485
Br      11.25420275      -0.48834742      12.19024312
