177
Properties=species:S:1:pos:R:3 pbc="F F F"
C        0.00000000       0.00000000       0.00000000
C        1.68594024       5.34456163      -2.44172354
O        1.29029859       4.42201381      -1.43774615
C        1.54229104       3.09190047      -1.64403908
C        0.76570951       2.26715903      -0.81528744
C        0.88151031       0.88151031      -0.88151031
C        1.78291296       0.29649148      -1.76206551
C        2.56922657       1.10714852      -2.58375799
C        2.46838678       2.50611896      -2.52337535
O        3.20183769       3.28434629      -3.38147117
C        4.60025287       3.00261477      -3.37454602
C        5.32742048       4.05506022      -4.20514056
O        6.04724104       4.90901161      -3.69024805
N        5.12448598       3.89457549      -5.56936385
N        5.79687012       4.67687265      -6.46898667
C        5.67164747       4.36420578      -7.72019055
C        6.31256183       5.05042115      -8.83473779
C        7.16186936       6.14348049      -8.78920273
C        7.68084011       6.60969312      -9.99847849
C        8.65988196       7.74803184     -10.01797007
C        7.33339758       5.95472576     -11.19972022
C        6.46784072       4.84407617     -11.21850040
Br       6.09565789       4.09576571     -12.91644835
C        5.95571926       4.37913829     -10.01273861
N        5.10860514       3.28800284      -9.69460080
C        4.59030897       2.31336933     -10.61415545
C        4.88861254       3.21378562      -8.33123093
O        4.24274197       2.41946516      -7.67219568
H        1.20944019       6.30280818      -2.21072968
H        1.33617090       5.03726958      -3.43218294
H        2.76706510       5.50749506      -2.42012076
H        0.05505229       2.72452490      -0.13037276
H        1.87150553      -0.78452677      -1.82943324
H        3.23723651       0.62307388      -3.28948570
H        4.81233360       2.02677057      -3.82585176
H        5.00317262       3.02384760      -2.35431913
H        4.50806056       3.15542514      -5.91640980
H        7.41749032       6.60497796      -7.83871243
H        8.56490220       8.32926113     -10.94132048
H        9.68130588       7.36073288      -9.94779123
H        8.48344752       8.43235066      -9.18174316
H        7.75562418       6.32118835     -12.13598803
H        4.00021069       1.56228985     -10.07941936
H        5.41990019       1.79817819     -11.10639868
H        3.93762229       2.80082886     -11.34211679
C       -4.03969573      -0.94236851      -4.49016118
O       -2.89119317      -0.41796760      -3.84089778
C       -2.35828732      -1.12424502      -2.79569825
C       -1.51573756      -0.33751550      -1.99490293
C       -0.88151031      -0.88151031      -0.88151031
C       -1.06378694      -2.22015269      -0.55753032
C       -1.89090995      -3.01584936      -1.35337377
C       -2.53176667      -2.48300201      -2.48311240
O       -3.38964104      -3.26183942      -3.21617469
C       -2.83026313      -4.50203910      -3.64511143
C       -3.79671881      -5.18020583      -4.61069661
O       -3.55678587      -5.27668152      -5.81303331
N       -4.91237949      -5.70447683      -3.97156899
N       -5.82495249      -6.45109805      -4.66667890
C       -6.75173425      -7.03216941      -3.97214014
C       -7.80649220      -7.88309603      -4.50813255
C       -8.02942422      -8.23656558      -5.82856279
C       -9.09547258      -9.09734992      -6.09618921
C       -9.35464441      -9.57540262      -7.49583685
C       -9.88606860      -9.57365491      -5.02812005
C       -9.63754917      -9.19937890      -3.69348922
Br     -10.80308440      -9.91779209      -2.38699546
C       -8.57295428      -8.34554569      -3.42909620
N       -8.04893056      -7.82159754      -2.22068069
C       -8.50657040      -8.11947564      -0.89178771
C       -6.95036383      -7.01788416      -2.46538111
O       -6.22349057      -6.41044806      -1.70046418
H       -4.44407497      -0.15024976      -5.12865333
H       -4.82050050      -1.21264605      -3.77247686
H       -3.77354984      -1.77898452      -5.14214657
H       -1.37792253       0.71230277      -2.24433019
H       -0.58253101      -2.65051702       0.31663602
H       -2.04618687      -4.04819079      -1.05541843
H       -2.67965739      -5.18437810      -2.80092045
H       -1.87373630      -4.34778707      -4.15981598
H       -5.03634152      -5.57989196      -2.96366203
H       -7.38286776      -7.86076719      -6.61754576
H      -10.42274527      -9.75786435      -7.65487419
H       -8.80639876     -10.50511182      -7.67831942
H       -9.03793061      -8.82853442      -8.23107631
H      -10.70790082     -10.25537177      -5.24952797
H       -7.88633402      -7.60393769      -0.15164820
H       -8.42166086      -9.19426082      -0.70855538
H       -9.53624171      -7.77576581      -0.76856043
C       -5.38023325       1.88845618       2.20353599
O       -4.36682811       0.97699672       1.80623372
C       -3.06953461       1.41531493       1.79338105
C       -2.23707778       0.59493133       1.01614688
C       -0.88151031       0.88151031       0.88151031
C       -0.33111708       1.97949041       1.53086246
C       -1.14722000       2.79672156       2.31619152
C       -2.51458605       2.51645642       2.46683861
O       -3.31305351       3.36481519       3.18978645
C       -2.83332670       3.63916569       4.50492128
C       -3.89516163       4.41963954       5.27282009
O       -4.53377020       3.91690956       6.19582094
N       -4.00253387       5.73739045       4.84850100
N       -4.82100369       6.61513508       5.50659067
C       -4.74937005       7.85831333       5.14836042
C       -5.51570369       8.95407743       5.72793966
C       -6.44892969       8.89597452       6.74964838
C       -7.03496507      10.09520649       7.15884015
C       -8.00453627      10.11611643       8.30523118
C       -6.65367924      11.30151668       6.53264763
C       -5.70109453      11.33333039       5.49599237
Br      -5.31771690      13.03295491       4.75720014
C       -5.11590479      10.13851151       5.09317987
N       -4.12182140       9.84238422       4.12700317
C       -3.40567343      10.79156969       3.32059064
C       -3.84763668       8.48713031       4.09886210
O       -3.05487236       7.85009426       3.42943619
H       -6.34373717       1.44180341       1.93743748
H       -5.30185299       2.83827161       1.66549881
H       -5.37752087       2.02917181       3.28798824
H       -2.66884145      -0.26107541       0.50218391
H        0.72348287       2.21806576       1.42182911
H       -0.69922867       3.66958466       2.78098277
H       -1.92906864       4.25765736       4.47822993
H       -2.62013597       2.71120918       5.04999420
H       -3.43188401       6.07758093       4.07043057
H       -6.69814887       7.94644296       7.21658887
H       -8.74314681      10.91462608       8.17771092
H       -7.46610812      10.27954527       9.24417660
H       -8.55350203       9.17125161       8.37278770
H       -7.10979230      12.23270957       6.87029869
H       -2.66823240      10.27890005       2.69478745
H       -2.86715126      11.48870530       3.96862051
H       -4.10076953      11.31768342       2.66211500
C        1.15995162      -3.29697690       5.01529689
O        0.43757244      -2.82427215       3.88821396
C        1.14355055      -2.29238797       2.84229206
C        0.33987076      -1.50769791       2.00058732
C        0.88151031      -0.88151031       0.88151031
C        2.22724067      -1.03959214       0.57463714
C        3.03451065      -1.82720974       1.39841269
C        2.50099112      -2.47036095       2.52652901
O        3.32099021      -3.18773012       3.35893483
C        4.10820602      -4.17461034       2.69459731
C        4.81780550      -5.03377051       3.73604525
O        4.50108221      -6.20429014       3.94112835
N        5.86451922      -4.36607562       4.35783047
N        6.68591463      -5.02340730       5.23340752
C        7.72796787      -4.37662977       5.65144616
C        8.73648250      -4.89346186       6.56777641
C        8.78910687      -6.14332735       7.16211836
C        9.88069300      -6.42153501       7.98678371
C       10.03711029      -7.77860765       8.61016593
C       10.87658392      -5.43852710       8.17273253
C       10.79966084      -4.17499498       7.55576147
Br      12.21227595      -2.97087553       7.92472047
C        9.71396577      -3.90185937       6.73177103
N        9.36880303      -2.76755257       5.95485319
C       10.15069613      -1.57300969       5.79412793
C        8.18225261      -2.97579810       5.27557838
O        7.57182695      -2.25912971       4.50344616
H        0.43618497      -3.46803658       5.81875650
H        1.87696232      -2.55286035       5.37580075
H        1.63734435      -4.25703780       4.80029877
H       -0.71239425      -1.37823480       2.24410941
H        2.66157395      -0.54478821      -0.28995016
H        4.09032021      -1.90237832       1.15709757
H        4.88157971      -3.71325813       2.07011809
H        3.48276206      -4.82649474       2.07208255
H        6.06253242      -3.38885080       4.12851229
H        8.00897397      -6.87696467       6.97524206
H       10.55292431      -7.70881217       9.57374732
H       10.61594214      -8.42808003       7.94580783
H        9.06198639      -8.24104351       8.79451144
H       11.73032487      -5.67315599       8.80931970
H        9.65514932      -0.88453366       5.10223692
H       11.12563849      -1.82891311       5.36992546
H       10.25683394      -1.06712839       6.75660562
