166
Properties=species:S:1:pos:R:3 pbc="F F F"
O        5.78172366       2.50385566      -5.61185106
C        6.38120423       3.11437838      -4.72643254
C        6.22700855       2.81674642      -3.23205959
O        5.24466032       1.84102499      -2.89765511
C        3.95053248       2.27031823      -2.77562479
C        3.40418305       3.39853739      -3.39133631
C        2.05769919       3.72472263      -3.20044209
C        1.25024300       2.92511853      -2.39376736
C        1.79197459       1.79197459      -1.79197459
C        3.13202125       1.45780407      -1.98683596
N        7.21047493       4.16387940      -5.05587416
N        8.01588277       4.80325186      -4.15476529
C        8.63166902       5.85526630      -4.60038951
C        8.49337229       6.52282402      -5.97655238
O        7.81801695       6.09956181      -6.88840672
N        9.28726004       7.64553572      -5.92615662
C        9.94310053       7.72926701      -4.70279262
C       10.85246710       8.68892955      -4.31359003
C       11.42560101       8.55050958      -3.04386808
C       11.07435418       7.47039522      -2.20688863
C       10.14110612       6.51101442      -2.60639989
C        9.59214946       6.67107738      -3.86192896
H        6.05077314       3.74425952      -2.67327767
H        7.18714601       2.41404421      -2.88741226
H        3.98860107       4.03116586      -4.05066557
H        1.63811832       4.59865072      -3.69258415
H        0.20542633       3.18662626      -2.25014920
H        3.55131435       0.56864877      -1.52391005
H        7.24637002       4.41535255      -6.04701892
H        9.39302580       8.28027024      -6.70362764
H       11.12893866       9.51481494      -4.96010008
H       12.15675362       9.28466714      -2.70923121
H        9.86843829       5.67222241      -1.97553464
C       11.70382519       7.35084888      -0.91728601
C       12.23100717       7.25072882       0.16275619
Br      13.08341583       7.08884316       1.90909306
O       -4.49756627      -6.54162544      -2.85823868
C       -3.75727873      -6.62624536      -3.83849106
C       -2.34098747      -6.04567327      -3.88915382
O       -1.94720142      -5.28512941      -2.75100959
C       -2.30798213      -3.96488806      -2.72360531
C       -3.39061193      -3.40116227      -3.40228255
C       -3.66659681      -2.03554456      -3.28072254
C       -2.86255569      -1.22639721      -2.48017599
C       -1.79197459      -1.79197459      -1.79197459
C       -1.51843276      -3.15512985      -1.90309868
N       -4.21024251      -7.22814621      -4.99183977
N       -3.41428724      -7.48647962      -6.07313306
C       -4.02655020      -7.93465482      -7.12611981
C       -5.53649530      -8.11743360      -7.33881980
O       -6.38422999      -7.92651808      -6.49523742
N       -5.67985573      -8.53804212      -8.64105453
C       -4.43803621      -8.68864961      -9.24847435
C       -4.18976859      -9.13761421     -10.52760388
C       -2.85004082      -9.25287027     -10.91706757
C       -1.80792256      -8.91610564     -10.02760983
C       -2.07157814      -8.44901727      -8.73792502
C       -3.39989083      -8.34533839      -8.37992658
H       -2.19926818      -5.46190048      -4.80714167
H       -1.65051262      -6.89612634      -3.94196352
H       -4.05943818      -3.99937705      -4.01161727
H       -4.51806502      -1.60740313      -3.80388504
H       -3.08368503      -0.16619034      -2.39232641
H       -0.68822048      -3.59688905      -1.35876364
H       -5.18482027      -7.53965224      -4.98426897
H       -6.57582599      -8.74337775      -9.05771995
H       -4.99053949      -9.40451340     -11.20880079
H       -2.61787504      -9.61570924     -11.91706769
H       -1.27956211      -8.19417808      -8.04245515
C       -0.44264784      -9.07076792     -10.45854432
C        0.70076973      -9.20029759     -10.81945195
Br       2.54957924      -9.40973610     -11.40300907
O       -6.50916339       2.82005072       4.56821627
C       -6.62676278       3.78401706       3.81123531
C       -6.07426078       3.81828173       2.38327205
O       -5.29945262       2.68737079       1.99651701
C       -3.97231948       2.69200969       2.33214633
C       -3.40138415       3.40207805       3.39059455
C       -2.02867912       3.31181660       3.64236819
C       -1.21960124       2.51136568       2.83816198
C       -1.79197459       1.79197459       1.79197459
C       -3.16196984       1.87189794       1.54279351
N       -7.24215729       4.93428221       4.25378900
N       -7.53641733       5.99487895       3.44260364
C       -7.99317821       7.05081773       4.04332888
C       -8.15135026       7.28917965       5.55221879
O       -7.92809905       6.46592876       6.41195767
N       -8.59427441       8.58572750       5.67895047
C       -8.78014253       9.16604423       4.42897340
C       -9.25839731      10.43138154       4.16520784
C       -9.40656881      10.79259909       2.82081076
C       -9.07249824       9.88969985       1.78943994
C       -8.57563016       8.61445275       2.06843753
C       -8.43985688       8.28424837       3.40105056
H       -5.51114947       4.74426925       2.21289162
H       -6.93852619       3.84157639       1.70849989
H       -3.99847405       4.01277461       4.05918384
H       -1.59465679       3.85938274       4.47531366
H       -0.15388798       2.44794539       3.04036842
H       -3.60879200       1.30331980       0.73176137
H       -7.53490799       4.93965514       5.23417836
H       -8.79059191       9.01567505       6.57065672
H       -9.52317949      11.12275360       4.95792059
H       -9.79302449      11.78085536       2.57677212
H       -8.32246131       7.90875345       1.28498058
C       -9.26134851      10.29113098       0.41948059
C       -9.41951062      10.62732955      -0.72786036
Br      -9.67524537      11.17093421      -2.58301365
O        4.27692791      -6.62977697       2.99072551
C        3.59507742      -6.61112064       4.01581709
C        2.22089329      -5.94201440       4.11290686
O        1.80240135      -5.22618678       2.95475229
C        2.23713431      -3.93466075       2.82468045
C        3.39071950      -3.40044379       3.40289346
C        3.73777943      -2.06394420       3.18114028
C        2.93425230      -1.25461165       2.38026495
C        1.79197459      -1.79197459       1.79197459
C        1.44684630      -3.12678020       2.00303479
N        4.08272124      -7.17165731       5.17584994
N        3.34153458      -7.31674930       6.31561605
C        3.99064764      -7.73982944       7.35684775
C        5.49763840      -8.00303014       7.49208016
O        6.30120410      -7.91446164       6.59031974
N        5.69658521      -8.35508488       8.80728230
C        4.48809048      -8.39285888       9.49421080
C        4.29374434      -8.75026775      10.81097459
C        2.97626272      -8.75946123      11.28425471
C        1.90248143      -8.41124349      10.43791311
C        2.11256273      -8.03734443       9.10861327
C        3.41994383      -8.03714541       8.66806656
H        2.17054824      -5.29807338       4.99968872
H        1.48661666      -6.74356116       4.25842466
H        4.05997845      -4.00238202       4.00807204
H        4.64350913      -1.65957392       3.62627013
H        3.21094031      -0.21705565       2.21420582
H        0.56019096      -3.54726902       1.53641319
H        5.03514314      -7.54281335       5.13078499
H        6.60313770      -8.59086008       9.18292590
H        5.11823117      -9.02607039      11.45955212
H        2.78569914      -9.04832346      12.31662937
H        1.29521245      -7.77493210       8.44605080
C        0.55981593      -8.45570155      10.95644260
C       -0.56466642      -8.49293517      11.39071106
Br      -2.38285928      -8.55313879      12.09288642
C       -0.00445707       0.01189536      -1.78238275
H       -0.66409135       0.67374010      -2.43557963
H        0.65740317      -0.63156657      -2.45157240
C       -0.90989263      -0.90692880      -0.91072765
C        0.90977584       0.90977584      -0.90977584
C       -0.00465871       1.77757030       0.00794375
H       -0.66225468       2.44313916      -0.64384735
H        0.64322798       2.43503045       0.67728295
C       -1.78241447       0.00034974      -0.00472694
H       -2.45427497      -0.65498947       0.64260836
H       -2.43311707       0.67328779      -0.65473579
C       -0.91132561       0.90220522       0.91563759
C       -0.01476271      -0.02253852       1.78660255
H       -0.67934791      -0.69751639       2.42135241
H        0.63392994       0.61504881       2.47327442
C        0.01484550      -1.77751727      -0.01636693
H        0.67870853      -2.42144646      -0.68295456
H       -0.62264859      -2.45592969       0.64226336
C        1.78714474       0.01002794       0.00389507
H        2.44202412       0.67113390       0.66197326
H        2.45385902      -0.65136977      -0.64189061
C        0.91606151      -0.90478549       0.90901405
