137
Properties=species:S:1:pos:R:3 pbc="F F F"
C        0.00000000       0.00000000       0.00000000
O        4.87181964       1.59395163      -4.70194704
C        5.47130020       2.20447436      -3.81652852
C        5.31710452       1.90684239      -2.32215557
O        4.33475629       0.93112097      -1.98775109
C        3.04062846       1.36041420      -1.86572077
C        2.49427903       2.48863336      -2.48143229
C        1.14779516       2.81481861      -2.29053807
C        0.34033898       2.01521450      -1.48386334
C        0.88207057       0.88207057      -0.88207057
C        2.22211723       0.54790005      -1.07693194
N        6.30057091       3.25397538      -4.14597014
N        7.10597875       3.89334784      -3.24486127
C        7.72176499       4.94536228      -3.69048548
C        7.58346827       5.61292000      -5.06664836
O        6.90811293       5.18965779      -5.97850270
N        8.37735602       6.73563169      -5.01625260
C        9.03319651       6.81936299      -3.79288860
C        9.94256307       7.77902553      -3.40368601
C       10.51569698       7.64060556      -2.13396405
C       10.16445015       6.56049120      -1.29698460
Br      10.99153106       6.40341567       0.39746308
C        9.23120210       5.60111039      -1.69649587
C        8.68224544       5.76117336      -2.95202493
H        5.14086911       2.83435550      -1.76337365
H        6.27724199       1.50414018      -1.97750823
H        3.07869705       3.12126184      -3.14076154
H        0.72821430       3.68874669      -2.78268012
H       -0.70447769       2.27672223      -1.34024517
H        2.64141033      -0.34125526      -0.61400603
H        6.33646599       3.50544853      -5.13711489
H        8.48312178       7.37036622      -5.79372362
H       10.21903463       8.60491091      -4.05019606
H       11.24684959       8.37476312      -1.79932719
H        8.95853427       4.76231839      -1.06563062
O       -3.32854321      -5.73315880      -2.10601630
C       -2.65787979      -5.69644591      -3.13797737
C       -1.29193236      -5.01176112      -3.24240900
O       -0.86869766      -4.30375900      -2.08117169
C       -1.31560285      -3.01837667      -1.93278390
C       -2.48084265      -2.49041043      -2.49309160
C       -2.83958232      -1.16009198      -2.25347754
C       -2.03614458      -0.35073214      -1.45254010
C       -0.88207057      -0.88207057      -0.88207057
C       -0.52516632      -2.21082843      -1.11095446
N       -3.15191456      -6.24989098      -4.29871088
N       -2.42141751      -6.37506823      -5.44770211
C       -3.07708661      -6.79404286      -6.48648327
C       -4.58257538      -7.07183419      -6.60862706
O       -5.37738304      -7.00133090      -5.69755947
N       -4.79179390      -7.41211231      -7.92533410
C       -3.59035045      -7.42977875      -8.62531889
C       -3.40628036      -7.77120660      -9.94778765
C       -2.09388864      -7.76138609     -10.43499187
C       -1.01488527      -7.41069094      -9.59634974
Br       0.74244697      -7.44313882     -10.29679179
C       -1.21472901      -7.05307435      -8.26100501
C       -2.51727510      -7.07143594      -7.80673270
H       -1.25781817      -4.35801432      -4.12276577
H       -0.55084334      -5.80386721      -3.40417986
H       -3.15012854      -3.09303127      -3.09756061
H       -3.75420960      -0.76072095      -2.68471057
H       -2.32196391       0.68201221      -1.27253802
H        0.37078736      -2.62674569      -0.65820278
H       -4.09983980      -6.63162047      -4.24756915
H       -5.69976032      -7.65355573      -8.29389556
H       -4.23467453      -8.04892394     -10.59054313
H       -1.91129494      -8.03731122     -11.47233374
H       -0.39318062      -6.78896911      -7.60433354
O       -4.32305614       1.65172386       5.19293830
C       -5.14483839       2.00193736       4.34552733
C       -5.16441672       1.47346231       2.90822346
O       -4.08707005       0.61102264       2.55553566
C       -2.92077674       1.19954220       2.14644449
C       -2.49519697       2.48653456       2.48261314
C       -1.27011054       2.97041056       2.01263073
C       -0.46391333       2.17073365       1.20476984
C       -0.88207057       0.88207057       0.88207057
C       -2.09890465       0.39207249       1.35597208
N       -6.08685040       2.95803534       4.65563068
N       -7.11644203       3.30301995       3.82472587
C       -7.83386745       4.31359090       4.21015441
C       -7.61192539       5.22482323       5.42628801
O       -6.74516136       5.07275980       6.25835225
N       -8.58868897       6.19091651       5.34963482
C       -9.42323531       5.96086335       4.26134943
C      -10.53412462       6.69179604       3.89935394
C      -11.25615246       6.24967960       2.78443454
C      -10.84936241       5.10397115       2.06859239
Br     -11.87832216       4.53163802       0.58752347
C       -9.71374870       4.37866194       2.43639772
C       -9.02114872       4.83577021       3.53852480
H       -5.23822630       2.30451962       2.19585234
H       -6.07955115       0.87867207       2.80066718
H       -3.07693964       3.13099322       3.13278757
H       -0.94172530       3.96945037       2.28846545
H        0.48590177       2.55516805       0.84322344
H       -2.42000758      -0.61662936       1.11078287
H       -6.01872954       3.37102238       5.58927750
H       -8.68739504       6.92914723       6.03066934
H      -10.85188574       7.56780816       4.45444771
H      -12.14600095       6.79713103       2.47780792
H       -9.39510795       3.49226281       1.89911252
O        3.22825972      -5.76478531       2.17467328
C        2.58817920      -5.68095177       3.22317210
C        1.24497892      -4.95547053       3.34565303
O        0.80876143      -4.26790056       2.17696636
C        1.28634708      -3.00015910       1.98025724
C        2.48092554      -2.49006757       2.49335157
C        2.86907550      -1.17744046       2.20663588
C        2.06587036      -0.36801671       1.40552974
C        0.88207057      -0.88207057       0.88207057
C        0.49549519      -2.19348386       1.15797017
N        3.09936093      -6.21609149       4.38506401
N        2.39835467      -6.28913302       5.55670016
C        3.07129468      -6.69779770       6.58852037
C        4.57145288      -7.01442355       6.67716020
O        5.34192257      -6.99130852       5.74304232
N        4.80826855      -7.32426870       7.99670306
C        3.62697997      -7.28891802       8.72955010
C        3.47094134      -7.58867931      10.06565396
C        2.17355109      -7.52856623      10.58814928
C        1.08136938      -7.17072595       9.76983062
Br      -0.65577089      -7.13447908      10.51877545
C        1.25325027      -6.85558525       8.41997284
C        2.54149593      -6.92305362       7.93089418
H        1.25358646      -4.27715652       4.20785528
H        0.48732318      -5.72166579       3.54990143
H        3.15021202      -3.09451507       3.09599334
H        3.80607820      -0.79232278       2.60124013
H        2.37468500       0.65095205       1.18875677
H       -0.42390746      -2.59625019       0.74181837
H        4.03465960      -6.62562036       4.31874945
H        5.71930013      -7.58099975       8.34691173
H        4.30918987      -7.87190594      10.69304579
H        2.01275260      -7.77072596      11.63746134
H        0.42107756      -6.58653413       7.77887158
