153
Properties=species:S:1:pos:R:3 pbc="F F F"
C        0.00000000       0.00000000       0.00000000
C        0.88176525       0.88176525      -0.88176525
C        2.19574977       1.14842719      -0.49782756
C        3.00514373       1.95927687      -1.30005655
C        2.49870121       2.49692649      -2.49209424
C        1.17172964       2.23198605      -2.85993824
C        0.36470001       1.42084400      -2.05819025
C        3.31395749       3.37807054      -3.37689442
O        2.74795439       4.21073030      -4.07902553
N        4.67953801       3.14862399      -3.35135630
N        5.51541842       3.90367340      -4.12561437
C        6.76716209       3.57332704      -4.11907462
C        7.81398228       4.22931403      -4.88695546
C        7.69759088       5.31840506      -5.72986538
C        8.85774321       5.73100903      -6.36911472
C       10.07755216       5.06127081      -6.15790251
C       10.17897569       3.94976570      -5.28949908
C       11.51112093       3.28337845      -5.13350492
C        9.01257602       3.54040259      -4.64686122
N        8.77696031       2.48321491      -3.73702304
C        9.75035491       1.55059602      -3.24328297
C        7.44495051       2.44246251      -3.36057005
O        6.85653134       1.69692547      -2.60015960
H        2.59585221       0.73965815       0.42677910
H        4.01475387       2.17963157      -0.96261424
H        0.76483655       2.65837528      -3.77531043
H       -0.66127447       1.22305067      -2.35815595
H        5.07321198       2.35764630      -2.83994142
H        6.74182878       5.81077833      -5.87881379
H       10.96487904       5.41218213      -6.68516490
H       12.28593711       3.79339833      -5.71706160
H       11.46733120       2.25179560      -5.49461901
H       11.83574436       3.30585153      -4.08983750
H        9.28103980       0.83558089      -2.56031611
H       10.52730515       2.08625514      -2.69262774
H       10.17957535       0.99075736      -4.07747233
C        8.81328359       6.85528168      -7.26779951
C        8.77604866       7.79686003      -8.02044802
Br       8.71584293       9.31931258      -9.23741701
C       -0.88176525      -0.88176525      -0.88176525
C       -0.31014139      -1.60037481      -1.93148832
C       -1.11480073      -2.40537221      -2.74430421
C       -2.49262572      -2.49564668      -2.49944953
C       -3.05693056      -1.75762924      -1.44909413
C       -2.25172409      -0.95481522      -0.63719495
C       -3.39772305      -3.32791527      -3.34328413
O       -4.57812878      -3.00889148      -3.45068996
N       -2.81422375      -4.44203723      -3.92325732
N       -3.55818461      -5.27004223      -4.71647936
C       -2.97052366      -6.33903359      -5.15000650
C       -3.58758043      -7.35820440      -5.98446693
C       -4.87315475      -7.38136115      -6.49134540
C       -5.22104656      -8.49555302      -7.24126738
C       -4.29942848      -9.53646957      -7.46082744
C       -2.98667407      -9.49496000      -6.93660640
C       -2.07350936     -10.65183671      -7.20265823
C       -2.63994653      -8.37304593      -6.18684738
N       -1.43307277      -8.03111882      -5.53300666
C       -0.22812116      -8.81109479      -5.50501795
C       -1.54718140      -6.80909582      -4.89170584
O       -0.73977168      -6.17673287      -4.23711186
H        0.75637566      -1.53332548      -2.13178145
H       -0.65129577      -2.92928532      -3.57641859
H       -4.12815820      -1.80871913      -1.26164493
H       -2.70391040      -0.39047519       0.17445345
H       -1.85922155      -4.71921622      -3.69236194
H       -5.56473412      -6.56708103      -6.29960574
H       -4.61449799     -10.39834056      -8.04938752
H       -2.55539787     -11.40667316      -7.83432600
H       -1.80063242     -11.14690198      -6.26621141
H       -1.17577548     -10.32290237      -7.73275554
H        0.54094007      -8.30339457      -4.91448230
H        0.15248835      -8.93728439      -6.52139198
H       -0.42761031      -9.77961193      -5.04058279
C       -6.54591969      -8.59356570      -7.79687940
C       -7.65550093      -8.67565131      -8.26220447
Br      -9.44959995      -8.80837681      -9.01459575
C       -0.88176525       0.88176525       0.88176525
C       -0.97353514       2.24854587       0.61992351
C       -1.77620273       3.06040982       1.42786460
C       -2.49333100       2.49978661       2.49460433
C       -2.38189861       1.12647431       2.75528101
C       -1.58063889       0.31646142       1.94663396
C       -3.35250785       3.32167431       3.39474029
O       -3.53474094       2.95202084       4.55094844
N       -3.91350164       4.44863813       2.81737854
N       -4.71645855       5.27005631       3.55819134
C       -5.27765850       6.25266159       2.92924366
C       -6.18210795       7.22447637       3.52366744
C       -6.59236245       7.31301092       4.84048794
C       -7.49136938       8.32632881       5.14016878
C       -7.94993975       9.20552600       4.14125974
C       -7.51739537       9.10198609       2.79885901
C       -8.06688040      10.06708600       1.79403790
C       -6.61213628       8.08528660       2.50241695
N       -5.99952454       7.71546311       1.28221060
C       -6.18413375       8.35159091       0.00850924
C       -5.16794468       6.62218687       1.45785151
O       -4.46934702       6.01959773       0.66467166
H       -0.41787159       2.69299256      -0.20213288
H       -1.80504546       4.12783325       1.22412098
H       -2.92209164       0.68522633       3.59120429
H       -1.50636323      -0.74680036       2.16036927
H       -3.82292030       4.63087771       1.81700169
H       -6.22707219       6.61615874       5.58818996
H       -8.66201150       9.98382643       4.41638815
H       -8.74322716      10.79169172       2.26147815
H       -8.64500509       9.53736066       1.03138006
H       -7.26188250      10.64150487       1.32804602
H       -5.59144335       7.84534863      -0.75985518
H       -5.85119957       9.39075053       0.06423793
H       -7.23566424       8.29437413      -0.28223334
C       -7.96907739       8.47705295       6.49023444
C       -8.36915786       8.60328443       7.62091443
Br      -9.01605413       8.80739004       9.44912834
C        0.88176525      -0.88176525       0.88176525
C        1.26819377      -0.43032262       2.14348813
C        2.07951998      -1.23269224       2.95226493
C        2.49738122      -2.49199818       2.49834254
C        2.11281166      -2.92842756       1.22241471
C        1.30133327      -2.12635581       0.41604519
C        3.37350690      -3.38122826       3.31418730
O        4.11368753      -4.17841978       2.74560292
N        3.24580647      -3.24701332       4.68669851
N        4.00541292      -4.01572039       5.52357289
C        3.76778187      -3.90078809       6.79099379
C        4.44451927      -4.64173534       7.84399715
C        5.46292855      -5.56723289       7.71569987
C        5.91436964      -6.15490421       8.88859311
C        5.35051820      -5.81388217      10.13232512
C        4.31044197      -4.86240357      10.24539493
C        3.75433280      -4.56898752      11.60468397
C        3.86200214      -4.27201682       9.06582087
N        2.85436534      -3.30599310       8.83683981
C        2.03015203      -2.68142815       9.83265371
C        2.74276256      -3.01835793       7.48686257
O        2.00960800      -2.24741404       6.89659437
H        0.95282544       0.54635400       2.50225984
H        2.39468734      -0.84471032       3.91760203
H        2.44584524      -3.89764955       0.85502747
H        1.00996126      -2.47978382      -0.56981294
H        2.52174849      -2.65425303       5.09479819
H        5.87361183      -5.81562738       6.74218168
H        5.72837168      -6.30406650      11.02978790
H        4.27856492      -5.13430739      12.38352473
H        2.70026921      -4.85657670      11.65689990
H        3.87065915      -3.51016083      11.85061342
H        1.33076695      -1.98171744       9.36445242
H        2.65661888      -2.11982115      10.52974799
H        1.44783445      -3.44200059      10.35796999
C        6.96923179      -7.13359457       8.83353843
C        7.85267885      -7.95324774       8.78743012
Br       9.28113801      -9.27855760       8.71287690
