145
Properties=species:S:1:pos:R:3 pbc="F F F"
C        0.00000000       0.00000000       0.00000000
C        0.88176525       0.88176525      -0.88176525
C        2.19574977       1.14842719      -0.49782756
C        3.00514373       1.95927687      -1.30005655
C        2.49870121       2.49692649      -2.49209424
C        1.17172964       2.23198605      -2.85993824
C        0.36470001       1.42084400      -2.05819025
C        3.31395749       3.37807054      -3.37689442
O        2.74795439       4.21073030      -4.07902553
N        4.67953801       3.14862399      -3.35135630
N        5.51541842       3.90367340      -4.12561437
C        6.76716209       3.57332704      -4.11907462
C        7.81398228       4.22931403      -4.88695546
C        7.69759088       5.31840506      -5.72986538
C        8.85774321       5.73100903      -6.36911472
Br       8.79936355       7.20728461      -7.54917225
C       10.07755216       5.06127081      -6.15790251
C       10.17897569       3.94976570      -5.28949908
C       11.51112093       3.28337845      -5.13350492
C        9.01257602       3.54040259      -4.64686122
N        8.77696031       2.48321491      -3.73702304
C        9.75035491       1.55059602      -3.24328297
C        7.44495051       2.44246251      -3.36057005
O        6.85653134       1.69692547      -2.60015960
H        2.59585221       0.73965815       0.42677910
H        4.01475387       2.17963157      -0.96261424
H        0.76483655       2.65837528      -3.77531043
H       -0.66127447       1.22305067      -2.35815595
H        5.07321198       2.35764630      -2.83994142
H        6.74182878       5.81077833      -5.87881379
H       10.96487904       5.41218213      -6.68516490
H       12.28593711       3.79339833      -5.71706160
H       11.46733120       2.25179560      -5.49461901
H       11.83574436       3.30585153      -4.08983750
H        9.28103980       0.83558089      -2.56031611
H       10.52730515       2.08625514      -2.69262774
H       10.17957535       0.99075736      -4.07747233
C       -0.88176525      -0.88176525      -0.88176525
C       -2.12873309      -0.41568203      -1.29758939
C       -2.94135179      -1.22186375      -2.10126161
C       -2.49981391      -2.49345814      -2.49444988
C       -1.24966147      -2.95546296      -2.05852950
C       -0.43844023      -2.14857713      -1.25671691
C       -3.33154094      -3.39844728      -3.33893422
O       -3.18360996      -4.61302916      -3.24107111
N       -4.20225384      -2.76632653      -4.21093793
N       -5.01013793      -3.50626819      -5.02830007
C       -5.73106428      -2.84908055      -5.87941892
C       -6.63626485      -3.44337152      -6.85061539
C       -6.92415347      -4.78182658      -7.03988127
C       -7.80927836      -5.08396179      -8.06462681
Br      -8.25992232      -6.88795363      -8.40794447
C       -8.37150946      -4.06672531      -8.85849072
C       -8.06766814      -2.70156960      -8.64900272
C       -8.69595016      -1.68281702      -9.54923712
C       -7.18102048      -2.40183700      -7.61698235
N       -6.67659295      -1.16250346      -7.15810185
C       -6.99445254       0.13475685      -7.68453821
C       -5.80130215      -1.34587255      -6.10080836
O       -5.17562997      -0.53979932      -5.43818712
H       -2.48147092       0.56698166      -0.99424202
H       -3.92265413      -0.84972322      -2.38462234
H       -0.90550980      -3.94774028      -2.34527218
H        0.52904646      -2.52023406      -0.92874455
H       -4.18626000      -1.75276245      -4.33177725
H       -6.46972864      -5.54528778      -6.41640447
H       -9.05697575      -4.34655763      -9.65869270
H       -9.37556397      -2.14967965     -10.27115341
H       -7.92932235      -1.15791430     -10.12650916
H       -9.29005148      -0.96946140      -8.97192051
H       -6.44869765       0.91141958      -7.13965874
H       -8.06383738       0.32696118      -7.56931182
H       -6.70005769       0.18753696      -8.73528430
C       -0.88176525       0.88176525       0.88176525
C       -0.54427048       2.22082816       1.07690587
C       -1.34645202       3.03058194       1.88744320
C       -2.49217963       2.49889825       2.49664405
C       -2.81297683       1.14761286       2.30306424
C       -2.01138976       0.34018660       1.49215790
C       -3.37412494       3.31412127       3.38067624
O       -4.01602649       2.75603650       4.26564724
N       -3.41717348       4.66839059       3.09395423
N       -4.19489139       5.50333004       3.84648477
C       -4.25616387       6.73881771       3.46458217
C       -5.04073953       7.78030021       4.10921202
C       -5.83197855       7.67627257       5.23761019
C       -6.50313750       8.82569235       5.62903712
Br      -7.61738387       8.78234044       7.15609612
C       -6.37278706      10.02311146       4.90082697
C       -5.55638195      10.11228546       3.74957306
C       -5.48586791      11.41969615       3.02244024
C       -4.88143622       8.95691006       3.36149356
N       -4.00684995       8.71371461       2.27663370
C       -3.59471875       9.66550389       1.28401125
C       -3.57517867       7.39793175       2.27487265
O       -2.82158707       6.80984693       1.52218241
H        0.34444324       2.64085299       0.61232152
H       -1.04412993       4.06188826       2.05098149
H       -3.69144900       0.72195392       2.78511934
H       -2.27466022      -0.70492652       1.35019845
H       -2.95646909       5.04835500       2.26597562
H       -5.91894075       6.73733899       5.77514116
H       -6.92292208      10.90216861       5.23713538
H       -6.08073969      12.19099015       3.52466720
H       -5.88718488      11.31642711       2.01013383
H       -4.45717550      11.78795319       2.98630470
H       -2.92231592       9.19441996       0.56020092
H       -3.05644381      10.48703286       1.76271136
H       -4.46916334      10.03518759       0.74345411
C        0.88176525      -0.88176525       0.88176525
C        0.47171796      -1.19214186       2.17814469
C        1.27845733      -1.99543994       2.99057989
C        2.49380195      -2.49406730       2.49985268
C        2.90078222      -2.16360193       1.19926978
C        2.09331916      -1.36202850       0.38838661
C        3.39775285      -3.34314775       3.32802184
O        4.60418261      -3.33147215       3.10205547
N        2.77125532      -4.11987343       4.28838955
N        3.51088977      -4.93289236       5.10092407
C        2.85116940      -5.69615094       5.91224341
C        3.44270610      -6.64738677       6.84015888
C        4.78305460      -6.90362808       7.05917863
C        5.07907929      -7.89088503       7.98790264
Br       6.88433490      -8.32040616       8.35107936
C        4.05402769      -8.58373897       8.65895882
C        2.68727377      -8.30661037       8.42435633
C        1.65855919      -9.10139841       9.16804670
C        2.39397965      -7.31234926       7.49351093
N        1.15471883      -6.80670614       7.03577328
C       -0.14884717      -7.22995979       7.46312128
C        1.34492035      -5.81721743       6.08584529
O        0.54173363      -5.14329969       5.46858309
H       -0.46677617      -0.80662431       2.56888313
H        0.95304956      -2.19564550       4.00830463
H        3.85038752      -2.53267548       0.81545926
H        2.42178001      -1.11652640      -0.61837426
H        1.75331934      -4.17695211       4.34052825
H        5.55197240      -6.35800118       6.52144731
H        4.32855999      -9.35779033       9.37587575
H        2.12370743      -9.80966675       9.86302286
H        1.05263953      -9.68889745       8.47220884
H        1.01998238      -8.44563782       9.76581320
H       -0.92468625      -6.67043843       6.93118463
H       -0.26566030      -7.03924727       8.53260106
H       -0.28271777      -8.29092116       7.23960165
