174
Properties=species:S:1:pos:R:3 pbc="F F F"
C        1.79166927       1.79166927      -1.79166927
C        3.10565380       2.05833121      -1.40773158
C        3.91504776       2.86918089      -2.20996058
C        3.40860523       3.40683051      -3.40199826
C        2.08163367       3.14189007      -3.76984226
C        1.27460403       2.33074803      -2.96809428
C        4.22386152       4.28797457      -4.28679844
O        3.65785841       5.12063433      -4.98892956
N        5.58944203       4.05852802      -4.26126033
N        6.42532244       4.81357742      -5.03551840
C        7.67706612       4.48323107      -5.02897864
C        8.72388630       5.13921805      -5.79685948
C        8.60749490       6.22830908      -6.63976940
C        9.76764723       6.64091306      -7.27901875
C       10.98745619       5.97117484      -7.06780654
C       11.08887972       4.85966972      -6.19940310
C       12.42102496       4.19328247      -6.04340895
C        9.92248005       4.45030661      -5.55676524
N        9.68686434       3.39311893      -4.64692706
C       10.66025893       2.46050004      -4.15318700
C        8.35485453       3.35236653      -4.27047408
O        7.76643537       2.60682949      -3.51006363
H        3.50575624       1.64956218      -0.48312493
H        4.92465790       3.08953560      -1.87251826
H        1.67474057       3.56827931      -4.68521445
H        0.24862955       2.13295469      -3.26805997
H        5.98311600       3.26755033      -3.74984545
H        7.65173280       6.72068235      -6.78871781
H       11.87478307       6.32208616      -7.59506892
H       13.19584113       4.70330235      -6.62696562
H       12.37723522       3.16169963      -6.40452304
H       12.74564838       4.21575555      -4.99974153
H       10.19094383       1.74548492      -3.47022014
H       11.43720917       2.99615916      -3.60253176
H       11.08947937       1.90066138      -4.98737636
C        9.72318761       7.76518571      -8.17770354
C        9.68595269       8.70676405      -8.93035205
Br       9.62574696      10.22921660     -10.14732103
C       -1.79166927      -1.79166927      -1.79166927
C       -3.16755428      -1.56799077      -1.83617154
C       -3.97925828      -2.37620043      -2.63873052
C       -3.40964838      -3.40469896      -3.40308667
C       -2.02668703      -3.62758645      -3.33909253
C       -1.21689467      -2.81868581      -2.53786586
C       -4.23038690      -4.30369255      -4.26455507
O       -3.83311989      -5.44267826      -4.49162415
N       -5.38969242      -3.74411231      -4.77542564
N       -6.21288683      -4.48552656      -5.57600487
C       -7.22945125      -3.87011208      -6.08971249
C       -8.21014851      -4.46680191      -6.98301342
C       -8.27281613      -5.77329230      -7.42946495
C       -9.30331882      -6.07688113      -8.30737909
C      -10.22418486      -5.09171128      -8.71054142
C      -10.14660050      -3.75985978      -8.24149226
C      -11.15616575      -2.76871202      -8.73283861
C       -9.11244007      -3.45958684      -7.35752500
N       -8.75992971      -2.24711057      -6.71987005
C       -9.43772384      -0.98806642      -6.84815572
C       -7.63783252      -2.41411746      -5.92574516
O       -7.03788857      -1.62386954      -5.22157037
H       -3.61882583      -0.77585998      -1.24375753
H       -5.05249872      -2.20349576      -2.63071728
H       -1.57775219      -4.43411336      -3.91636878
H       -0.14617511      -3.00280732      -2.50066179
H       -5.59793397      -2.75261633      -4.64996148
H       -7.54415275      -6.51019507      -7.10678515
H      -11.01502865      -5.36918076      -9.40772874
H      -11.88675434      -3.23776431      -9.40159045
H      -10.66605400      -1.97430674      -9.30309715
H      -11.71962651      -2.34339003      -7.89812892
H       -8.93647339      -0.22241954      -6.24775595
H      -10.46449967      -1.08420499      -6.48719544
H       -9.42016441      -0.66555103      -7.89180167
C       -9.42916702      -7.41648970      -8.82042014
C       -9.53456489      -8.53841187      -9.25009202
Br      -9.70498434     -10.35246514      -9.94483511
C       -1.79166927       1.79166927       1.79166927
C       -1.21155174       2.55764906       2.80251579
C       -2.01598434       3.36289013       3.61531477
C       -3.40242194       3.40575217       3.40925990
C       -3.97466472       2.62057499       2.39812629
C       -3.16972415       1.81755872       1.58616346
C       -4.30712009       4.23625180       4.25526263
O       -5.47383930       3.88643977       4.40714322
N       -3.74060767       5.38369560       4.78492711
N       -4.48565164       6.21310086       5.57566576
C       -3.91788406       7.31119419       5.96019757
C       -4.54065419       8.33651764       6.78279201
C       -5.81108430       8.33748227       7.32700681
C       -6.17022029       9.46303207       8.05432667
C       -5.27415960      10.53637340       8.21590456
C       -3.97652774      10.51734250       7.65408231
C       -3.09103117      11.70768819       7.85899701
C       -3.61831931       9.38404827       6.92718433
N       -2.42125511       9.05790958       6.24774563
C       -1.24149146       9.87136113       6.16109338
C       -2.51733865       7.81445501       5.64590148
O       -1.71072666       7.18651036       4.98609147
H       -0.13814012       2.52761912       2.97268411
H       -1.54438783       3.92469472       4.41762921
H       -5.05193254       2.63490673       2.24139507
H       -3.62820844       1.21630314       0.80513265
H       -2.80143056       5.68146032       4.51762089
H       -6.48327669       7.49809254       7.17976375
H       -5.59764113      11.40594872       8.78834830
H       -3.57673365      12.46676703       8.48260843
H       -2.86039156      12.18223965       6.90082669
H       -2.16884624      11.42096347       8.37133575
H       -0.47506290       9.36877312       5.56281286
H       -0.83547238      10.03889164       7.16153608
H       -1.48326071      10.81935291       5.67490349
C       -7.48073869       9.53910390       8.64623427
C       -8.57829785       9.60281405       9.14195689
Br     -10.35295818       9.70582798       9.94349843
C        1.79166927      -1.79166927       1.79166927
C        1.21439386      -2.54025031       2.81707241
C        2.01890935      -3.34540062       3.62987925
C        3.40246076      -3.40567768       3.40929557
C        3.97206722      -2.63781838       2.38348040
C        3.16702888      -1.83487798       1.57153948
C        4.30731993      -4.23682212       4.25449248
O        5.47935478      -3.89818644       4.38988108
N        3.73424366      -5.37218478       4.80280194
N        4.47887408      -6.20108490       5.59445928
C        3.90348772      -7.28866180       5.99712631
C        4.52408489      -8.31177225       6.82410669
C        5.80031521      -8.32075652       7.35450166
C        6.15517987      -9.44222587       8.09017330
C        5.24936527     -10.50387332       8.27319896
C        3.94593932     -10.47671774       7.72529548
C        3.04989451     -11.65500182       7.95282004
C        3.59209065      -9.34751047       6.98995078
N        2.39125970      -9.01565965       6.31999098
C        1.20187270      -9.81703012       6.25504314
C        2.49421259      -7.77992651       5.70355604
O        1.68727274      -7.15036998       5.04568577
H        0.14329913      -2.49662164       2.99852257
H        1.55007012      -3.89327903       4.44336261
H        5.04733499      -2.66564735       2.21525200
H        3.62341806      -1.24717901       0.77904715
H        2.78902346      -5.66252258       4.54896573
H        6.47991010      -7.49042525       7.19079762
H        5.56965677     -11.37068617       8.85159520
H        3.53414550     -12.41255389       8.57940972
H        2.80364422     -12.13735275       7.00246092
H        2.13653817     -11.35265782       8.47194948
H        0.43442722      -9.31258882       5.65963284
H        0.80504563      -9.96925278       7.26160169
H        1.42801540     -10.77282590       5.77667581
C        7.47120232      -9.52623077       8.66864377
C        8.57337112      -9.59658488       9.15311279
Br      10.35548486      -9.71034152       9.93645821
C       -0.00445707       0.01189536      -1.78238275
H       -0.66409135       0.67374010      -2.43557963
H        0.65740317      -0.63156657      -2.45157240
C       -0.90989263      -0.90692880      -0.91072765
C        0.90977584       0.90977584      -0.90977584
C       -0.00465871       1.77757030       0.00794375
H       -0.66225468       2.44313916      -0.64384735
H        0.64322798       2.43503045       0.67728295
C       -1.78241447       0.00034974      -0.00472694
H       -2.45427497      -0.65498947       0.64260836
H       -2.43311707       0.67328779      -0.65473579
C       -0.91132561       0.90220522       0.91563759
C       -0.01476271      -0.02253852       1.78660255
H       -0.67934791      -0.69751639       2.42135241
H        0.63392994       0.61504881       2.47327442
C        0.01484550      -1.77751727      -0.01636693
H        0.67870853      -2.42144646      -0.68295456
H       -0.62264859      -2.45592969       0.64226336
C        1.78714474       0.01002794       0.00389507
H        2.44202412       0.67113390       0.66197326
H        2.45385902      -0.65136977      -0.64189061
C        0.91606151      -0.90478549       0.90901405
