185
Properties=species:S:1:pos:R:3 pbc="F F F"
C        0.00000000       0.00000000       0.00000000
C        1.47365942       5.28767288      -2.50095390
O        1.38828518       4.42236137      -1.37519229
C        1.56772195       3.08477145      -1.62143777
C        0.77763126       2.26623812      -0.80267946
C        0.88144594       0.88144594      -0.88144594
C        1.79944869       0.29691395      -1.74553673
C        2.60624023       1.10732873      -2.54926162
C        2.47596115       2.50422070      -2.52523744
O        3.27926126       3.32103436      -3.27297977
C        3.63633560       2.88227323      -4.58354573
C        3.12461990       3.82946741      -5.67138941
O        2.42114243       4.81565940      -5.45486240
N        3.47780190       3.50648271      -6.96389821
N        4.33318066       2.48671475      -7.26547209
C        4.60751820       2.32653798      -8.52366301
C        5.53171404       1.34111544      -9.06803769
C        6.27278410       0.39522815      -8.38387086
C        7.10633205      -0.40907176      -9.14878916
C        7.18451427      -0.25085835     -10.54482657
C        6.42130772       0.72315316     -11.22847855
C        6.57770775       0.84220263     -12.71357715
C        5.57770415       1.52111063     -10.45878019
N        4.69841999       2.56265367     -10.82889422
C        4.44009126       3.02934636     -12.16407031
C        4.07580859       3.10741363      -9.72027335
O        3.27197698       4.01104127      -9.62887301
H        0.95144017       4.87297047      -3.36803793
H        2.51455057       5.53659497      -2.72392382
H        0.97227541       6.22364149      -2.23424578
H        0.08129841       2.72838458      -0.10745904
H        1.91017123      -0.78326012      -1.78978579
H        3.35713669       0.62058131      -3.16454293
H        3.25383078       1.88822829      -4.83576077
H        4.73060393       2.86299339      -4.62772427
H        3.11735306       4.11564759      -7.70370568
H        6.20339935       0.29804040      -7.30624332
H        7.85792181      -0.89646520     -11.10898746
H        7.32339623       0.13666281     -13.09667387
H        6.92398682       1.84374752     -12.98406674
H        5.63518033       0.61757497     -13.21987606
H        3.68035654       3.81691719     -12.15206529
H        4.06430504       2.20615296     -12.77547193
H        5.35570623       3.44646281     -12.59051194
C        7.90953310      -1.41540334      -8.50399088
C        8.58221398      -2.25820604      -7.96397232
Br       9.66988207      -3.62094672      -7.09080798
C       -3.31981313      -1.00804085      -4.93443223
O       -2.06256354      -0.82992948      -4.29334583
C       -1.96251589      -1.30218319      -3.00923209
C       -1.13856086      -0.51080966      -2.19717832
C       -0.88144594      -0.88144594      -0.88144594
C       -1.40775272      -2.06228610      -0.37186054
C       -2.21243060      -2.86772023      -1.18267975
C       -2.52950011      -2.48194255      -2.49397662
O       -3.28270774      -3.27019273      -3.32037491
C       -4.37182785      -3.98878161      -2.74154510
C       -5.72063523      -3.57209227      -3.33274922
O       -5.86549691      -2.66954623      -4.15662110
N       -6.81940034      -4.26167687      -2.86710561
N       -6.72049586      -5.33494267      -2.02992897
C       -7.83771584      -5.91152719      -1.70847617
C       -7.96627343      -7.09930373      -0.87529001
C       -6.96197100      -7.82655208      -0.26336003
C       -7.35911280      -8.94437516       0.45743850
C       -8.71618727      -9.30622189       0.54392667
C       -9.73041556      -8.55253110      -0.08999277
C      -11.14951062      -9.01653709       0.03256018
C       -9.32910574      -7.42516689      -0.80332232
N      -10.07991092      -6.47709077      -1.53296620
C      -11.51018737      -6.44675719      -1.67656337
C       -9.25659042      -5.53077557      -2.11612957
O       -9.52083968      -4.57565957      -2.81539201
H       -4.15106140      -0.78062806      -4.26075911
H       -3.39893603      -2.00875552      -5.36737780
H       -3.36830489      -0.29666946      -5.76518833
H       -0.70552971       0.39733266      -2.60894497
H       -1.18530534      -2.37595679       0.64456522
H       -2.55342826      -3.81447083      -0.77436183
H       -4.45812147      -3.86189749      -1.65780087
H       -4.20942131      -5.04918448      -2.96271580
H       -7.73103858      -3.97279675      -3.23287101
H       -5.92171900      -7.53402733      -0.35193676
H       -8.98650312     -10.19634743       1.11240647
H      -11.21980681      -9.94579742       0.60887132
H      -11.57161110      -9.22571285      -0.95447714
H      -11.75556414      -8.27055853       0.55349131
H      -11.81605013      -5.57304473      -2.26024416
H      -11.97755514      -6.37633281      -0.69204198
H      -11.84497424      -7.34289202      -2.20481471
C       -6.36741824      -9.75103950       1.12033709
C       -5.53687404     -10.42662088       1.67551465
Br      -4.19395432     -11.51897884       2.57318983
C       -3.07485956       1.12025931       5.06716733
O       -1.84960709       0.97740025       4.35883150
C       -1.85735009       1.37169510       3.04488598
C       -1.03476400       0.58095715       2.23082768
C       -0.88144594       0.88144594       0.88144594
C       -1.51189684       1.99348905       0.33651348
C       -2.31625393       2.79931314       1.14726351
C       -2.52859310       2.47985357       2.49697261
O       -3.27964280       3.27265077       3.32098182
C       -4.44532470       3.88596468       2.77086518
C       -5.72672830       3.42762431       3.47112411
O       -5.76376549       2.57256089       4.35533785
N       -6.89335842       4.01870710       3.03611730
N       -6.91382242       5.04021741       2.13132768
C       -8.08293929       5.52685145       1.84792846
C       -8.33707305       6.64901217       0.95478195
C       -7.41995801       7.39467733       0.23724777
C       -7.93040786       8.43819903      -0.52255744
C       -9.31059110       8.71153747      -0.54364607
C      -10.23458019       7.94034202       0.19801722
C      -11.68524809       8.30940983       0.13882961
C       -9.71981700       6.88708876       0.95068920
N      -10.36321002       5.94421756       1.78254030
C      -11.77739207       5.83720879       2.01890706
C       -9.44747253       5.08835560       2.36766743
O       -9.60756399       4.16577661       3.13855065
H       -3.92884700       0.80065775       4.46294382
H       -3.19167089       2.14005155       5.44334692
H       -3.02771527       0.46186604       5.94058138
H       -0.52055443      -0.27130586       2.66789345
H       -1.37147582       2.25429602      -0.70907493
H       -2.74104793       3.69578845       0.70542453
H       -4.58831543       3.68505156       1.70445284
H       -4.33808803       4.96618576       2.91704780
H       -7.76100897       3.69954004       3.47615733
H       -6.35968337       7.17148160       0.27651811
H       -9.67098151       9.54560905      -1.14614649
H      -11.84936542       9.19398800      -0.48662050
H      -12.05976664       8.55554888       1.13648556
H      -12.27255359       7.49655321      -0.29647544
H      -11.99109211       4.98582333       2.67242359
H      -12.29763312       5.67597745       1.07231935
H      -12.13646081       6.74355318       2.51266698
C       -7.03399647       9.25895503      -1.29483085
C       -6.28325193       9.94633817      -1.94160983
Br      -5.06936150      11.05777857      -2.98739674
C        1.82409931      -5.36154231       2.07664458
O        1.75648453      -4.38074853       1.04860579
C        1.74533297      -3.07124998       1.45734822
C        0.95489125      -2.24962628       0.64203131
C        0.88144594      -0.88144594       0.88144594
C        1.62361348      -0.31022020       1.90806568
C        2.43117331      -1.12021645       2.71144082
C        2.47407056      -2.50980486       2.52154386
O        3.28498770      -3.31972386       3.26856383
C        3.44316588      -3.00673012       4.65225857
C        2.93555082      -4.12804683       5.56187906
O        2.38389456      -5.15081360       5.15695607
N        3.10582891      -3.92753828       6.91481563
N        3.79416412      -2.86556061       7.42564278
C        3.91001573      -2.83005457       8.71764889
C        4.64426331      -1.82391000       9.47269386
C        5.33489016      -0.72798275       8.98901020
C        5.97782995       0.06300487       9.93122437
C        5.92375881      -0.25346809      11.30125560
C        5.21474290      -1.37947027      11.77872625
C        5.22353151      -1.65963882      13.25031720
C        4.56162822      -2.16470422      10.83126252
N        3.77999699      -3.33194454      10.97802635
C        3.43770124      -3.98171037      12.21409632
C        3.35085054      -3.80254914       9.75009588
O        2.67670726      -4.76977521       9.46540879
H        1.16525472      -5.11337417       2.91381967
H        2.85733658      -5.52203479       2.39569799
H        1.47120301      -6.30691719       1.65204248
H        0.39848709      -2.69662284      -0.17796790
H        1.59752757       0.76227776       2.08144710
H        3.04705634      -0.63340336       3.46180122
H        2.91837493      -2.09748476       4.96196014
H        4.51590838      -2.87519657       4.83021664
H        2.74410291      -4.65692050       7.53568292
H        5.37072848      -0.50927541       7.92767918
H        6.44947625       0.38794318      12.00891101
H        5.83283093      -0.92941206      13.79448992
H        5.65718788      -2.64337628      13.45123692
H        4.21175749      -1.60068808      13.66018579
H        2.78449236      -4.83925984      12.02558683
H        2.90151136      -3.28376091      12.86065766
H        4.34573498      -4.34626761      12.70067837
C        6.71822110       1.22051096       9.50041050
C        7.33829870       2.18992231       9.13960388
Br       8.34091172       3.75737847       8.55621009
