162
Properties=species:S:1:pos:R:3 pbc="F F F"
C        1.77693152       1.77693152      -1.77693152
C        2.49316907       2.86946403      -1.34963627
C        3.14870415       3.37938253      -2.49624148
C        2.81711149       2.55177782      -3.55657333
O        1.95506249       1.58626515      -3.10997282
C        3.17658667       2.65896125      -4.96319471
O        3.54333796       3.74328522      -5.42358535
N        3.11914173       1.53063207      -5.79996311
C        3.05514411       1.78764865      -7.24869579
C        3.56643386       0.61824440      -8.10580830
N        2.94843019      -0.63744448      -7.67089467
C        3.23905342      -0.93133170      -6.27063459
C        2.70943292       0.18388294      -5.35511934
C        1.72587403      -1.10353414      -8.18089472
O        0.94403112      -1.71624408      -7.45080677
C        1.39330140      -0.85255239      -9.57259224
C        0.15992834      -0.85075263     -10.20159073
C        0.39666393      -0.60459108     -11.57530202
C        1.76070261      -0.49767633     -11.71160027
O        2.37311674      -0.65870284     -10.50930485
H        2.53040570       3.26031728      -0.34248235
H        3.78953008       4.24896665      -2.56101805
H        3.61565797       2.69214368      -7.50685571
H        1.99992546       1.98084031      -7.47915836
H        3.37877663       0.84370831      -9.15438882
H        4.65030522       0.50766770      -7.98109177
H        2.81751005      -1.89838033      -5.97650874
H        4.32884298      -1.00832152      -6.17290578
H        1.61361547       0.17290540      -5.33486799
H        3.08678157      -0.00682527      -4.34720498
H       -0.79106864      -1.01190406      -9.71081442
H       -0.33744323      -0.52857934     -12.36529213
C        2.45356244      -0.25392400     -12.95020031
C        3.03383254      -0.04978144     -13.98752785
Br       3.97208021       0.28029983     -15.66479874
C       -1.77693152      -1.77693152      -1.77693152
C       -1.65330566      -1.92068905      -3.13827467
C       -2.67604132      -2.81762162      -3.53066522
C       -3.35120492      -3.19342436      -2.38083336
O       -2.80788092      -2.53011147      -1.31330807
C       -4.51750622      -4.05145618      -2.22978023
O       -5.25918993      -4.25691704      -3.19410156
N       -4.79909867      -4.65770109      -0.99293714
C       -6.18108483      -5.12325837      -0.78714534
C       -6.30535676      -6.24351796       0.25838816
N       -5.58559756      -5.87779150       1.48150869
C       -4.16761625      -5.63927195       1.22853189
C       -3.97551886      -4.49426283       0.22134649
C       -6.17820835      -5.15359548       2.52856922
O       -5.51053490      -4.34587970       3.17782078
C       -7.58286444      -5.36408989       2.83361308
C       -8.47331147      -4.54902815       3.51157317
C       -9.70200760      -5.24827046       3.58290319
C       -9.48478109      -6.45972671       2.96988125
O       -8.20368779      -6.54489383       2.52486286
H       -0.92756228      -1.43231216      -3.77333090
H       -2.90982693      -3.15915926      -4.53052859
H       -6.61955406      -5.46440075      -1.73070255
H       -6.75392094      -4.24674906      -0.45925414
H       -7.36107393      -6.44668434       0.43088452
H       -5.85024796      -7.16520835      -0.12360838
H       -3.63364454      -5.42159010       2.15959618
H       -3.74805547      -6.56780371       0.82243194
H       -4.25823723      -3.53669633       0.67354469
H       -2.91659756      -4.46291910      -0.04764463
H       -8.24539578      -3.56660335       3.90415741
H      -10.62385207      -4.91232061       4.03690313
C      -10.46819733      -7.50076719       2.81912579
C      -11.29180844      -8.37263860       2.69286808
Br     -12.62351793      -9.78238092       2.48872006
C       -1.77693152       1.77693152       1.77693152
C       -2.32321369       1.40649004       2.98256565
C       -3.06540997       2.52410519       3.43481300
C       -2.90817631       3.52611017       2.49117616
O       -2.13633215       3.04933418       1.46563413
C       -3.50228288       4.85424225       2.44221750
O       -4.52360649       5.09566424       3.09093780
N       -2.91290402       5.86895410       1.66787878
C       -3.77466508       7.00800039       1.30882307
C       -2.99601146       8.29662698       0.99784812
N       -1.91090466       8.01796949       0.05300623
C       -0.97354101       7.02849770       0.57631760
C       -1.68592324       5.69750556       0.86500640
C       -2.08147084       8.06193986      -1.34017609
O       -1.46668518       7.27596764      -2.06405900
C       -2.99043359       9.03831683      -1.91540917
C       -3.61584096       9.04551290      -3.15058742
C       -4.34990645      10.25285653      -3.23538811
C       -4.10946650      10.92588773      -2.06072768
O       -3.27887555      10.20630886      -1.26146565
H       -2.21374383       0.44841262       3.47104888
H       -3.65417995       2.60629561       4.33903922
H       -4.49953554       7.21117946       2.10394235
H       -4.34139873       6.69588470       0.42264070
H       -3.69398136       9.04894599       0.63394641
H       -2.53729950       8.68793807       1.91382711
H       -0.13984822       6.87224478      -0.11645454
H       -0.55349959       7.43584014       1.50408750
H       -1.98161748       5.21176333      -0.07199195
H       -0.98088393       5.05167348       1.39460387
H       -3.53903189       8.26230175      -3.89349191
H       -4.96514715      10.59146048      -4.05733807
C       -4.65270982      12.21453775      -1.71740883
C       -5.10767611      13.29378213      -1.42987929
Br      -5.84331811      15.03882903      -0.96496835
C        1.77693152      -1.77693152       1.77693152
C        1.66737039      -3.14116066       1.90373833
C        2.67224791      -3.52988684       2.82219341
C        3.35838662      -2.38230700       3.18476902
O        2.78536065      -1.30868706       2.55725275
C        4.44354293      -2.21460345       4.14059625
O        4.63047857      -3.06509416       5.01463580
N        5.28862707      -1.09338511       4.06772472
C        6.04632560      -0.75949364       5.28566931
C        7.32540928       0.04908016       5.01415744
N        7.03054008       1.18501608       4.13635638
C        6.47731624       0.75459680       2.85563687
C        5.16717960      -0.02317438       3.05808122
C        6.62053763       2.43780619       4.62050317
O        5.81451858       3.11544534       3.97952058
C        7.15260598       2.92189926       5.88263452
C        6.65313530       3.88506123       6.74269238
C        7.58411781       4.01748010       7.80073716
C        8.61076240       3.14922408       7.51308824
O        8.36584623       2.49158902       6.34946155
H        0.94711526      -3.77734304       1.40874703
H        2.88412053      -4.52525380       3.19014045
H        6.30766119      -1.66670421       5.84029196
H        5.36691996      -0.17465075       5.91835343
H        7.75940855       0.34914890       5.96661411
H        8.06291137      -0.57763221       4.49852111
H        6.31428341       1.60954690       2.19090195
H        7.22451149       0.10908626       2.37800201
H        4.37238206       0.65012293       3.39912974
H        4.88269321      -0.45107439       2.09339368
H        5.72326971       4.42168092       6.60625293
H        7.51696724       4.67441525       8.65671758
C        9.78683899       2.95893599       8.32193574
C       10.77180314       2.79956972       8.99934553
Br      12.36440686       2.54188793      10.09465986
C       -0.00445707       0.01189536      -1.78238275
H       -0.66409135       0.67374010      -2.43557963
H        0.65740317      -0.63156657      -2.45157240
C       -0.90989263      -0.90692880      -0.91072765
C        0.90977584       0.90977584      -0.90977584
C       -0.00465871       1.77757030       0.00794375
H       -0.66225468       2.44313916      -0.64384735
H        0.64322798       2.43503045       0.67728295
C       -1.78241447       0.00034974      -0.00472694
H       -2.45427497      -0.65498947       0.64260836
H       -2.43311707       0.67328779      -0.65473579
C       -0.91132561       0.90220522       0.91563759
C       -0.01476271      -0.02253852       1.78660255
H       -0.67934791      -0.69751639       2.42135241
H        0.63392994       0.61504881       2.47327442
C        0.01484550      -1.77751727      -0.01636693
H        0.67870853      -2.42144646      -0.68295456
H       -0.62264859      -2.45592969       0.64226336
C        1.78714474       0.01002794       0.00389507
H        2.44202412       0.67113390       0.66197326
H        2.45385902      -0.65136977      -0.64189061
C        0.91606151      -0.90478549       0.90901405
