133
Properties=species:S:1:pos:R:3 pbc="F F F"
C        0.00000000       0.00000000       0.00000000
C        0.86702750       0.86702750      -0.86702750
C        1.58326505       1.95956001      -0.43973225
C        2.23880013       2.46947850      -1.58633745
C        1.90720746       1.64187379      -2.64666930
O        1.04515847       0.67636112      -2.20006879
C        2.26668265       1.74905723      -4.05329068
O        2.63343393       2.83338120      -4.51368133
N        2.20923770       0.62072804      -4.89005909
C        2.14524009       0.87774462      -6.33879176
C        2.65652984      -0.29165962      -7.19590428
N        2.03852616      -1.54734850      -6.76099064
C        2.32914939      -1.84123572      -5.36073057
C        1.79952889      -0.72602109      -4.44521531
C        0.81597000      -2.01343816      -7.27099070
O        0.03412710      -2.62614810      -6.54090275
C        0.48339738      -1.76245642      -8.66268821
C       -0.74997568      -1.76065665      -9.29168671
C       -0.51324010      -1.51449510     -10.66539800
C        0.85079859      -1.40758035     -10.80169624
Br       1.74812092      -1.09189687     -12.40580639
O        1.46321272      -1.56860686      -9.59940083
H        1.62050168       2.35041326       0.56742167
H        2.87962606       3.33906263      -1.65111402
H        2.70575395       1.78223965      -6.59695168
H        1.09002143       1.07093629      -6.56925434
H        2.46887260      -0.06619571      -8.24448480
H        3.74040120      -0.40223632      -7.07118774
H        1.90760603      -2.80828436      -5.06660472
H        3.41893896      -1.91822555      -5.26300175
H        0.70371145      -0.73699862      -4.42496397
H        2.17687754      -0.91672929      -3.43730096
H       -1.70097266      -1.92180808      -8.80091040
H       -1.24734725      -1.43848337     -11.45538811
C       -0.86702750      -0.86702750      -0.86702750
C       -0.43128052      -1.62042592      -1.93085086
C       -1.58112693      -2.26040083      -2.45308832
C       -2.65266929      -1.88262947      -1.66045180
O       -2.20833143      -1.00790785      -0.70534911
C       -4.06478739      -2.21037452      -1.79386865
O       -4.50768375      -2.59272244      -2.88009027
N       -4.92703756      -2.10452765      -0.68845962
C       -6.36705322      -2.01176482      -0.98295843
C       -7.26479846      -2.47279081       0.17681477
N       -6.84527018      -1.83445547       1.42755735
C       -5.46023818      -2.15161043       1.76320437
C       -4.50498587      -1.67233436       0.65859711
C       -7.33583826      -0.58863771       1.85095343
O       -6.60160891       0.19025040       2.46247677
C       -8.71231072      -0.22869822       1.55737976
C       -9.31016569       1.01916822       1.50994309
C      -10.68295936       0.80982726       1.23546930
C      -10.85055022      -0.55273606       1.15837179
Br     -12.46836660      -1.41839638       0.82473254
O       -9.66814902      -1.18998542       1.36412775
H        0.58383406      -1.69184936      -2.29547796
H       -1.64069336      -2.92092275      -3.30818660
H       -6.61703724      -2.58819345      -1.87971460
H       -6.56639984      -0.95639651      -1.20741571
H       -8.30259114      -2.26538139      -0.07918915
H       -7.16983987      -3.55628241       0.31676966
H       -5.17929137      -1.71338416       2.72674914
H       -5.39158218      -3.24119735       1.86906437
H       -4.45772070      -0.57739927       0.64344318
H       -3.51171467      -2.06919773       0.88346318
H       -8.79991681       1.96167673       1.66011043
H      -11.45233995       1.56079402       1.12198844
C       -0.86702750       0.86702750       0.86702750
C       -1.85439101       0.41730027       1.71086603
C       -2.40935414       1.57222643       2.31303551
C       -1.71004398       2.66298190       1.82272468
O       -0.78249323       2.22180076       0.91729440
C       -1.91284828       4.08256565       2.07361662
O       -3.00024048       4.48333308       2.49692290
N       -0.87251143       5.00065497       1.84685843
C       -1.26258633       6.41181933       1.68737081
C       -0.13659362       7.40439466       2.01978621
N        1.09797940       7.02049374       1.32965396
C        1.53892331       5.68076088       1.70680666
C        0.47044227       4.63302450       1.35614089
C        1.41455511       7.45553626       0.03254139
O        2.02388422       6.71117514      -0.73840918
C        1.01352044       8.78653777      -0.38938816
C        0.85413023       9.30030408      -1.66511947
C        0.50624396      10.66481916      -1.52091241
C        0.49993790      10.91345128      -0.16859890
Br       0.11666654      12.56009215       0.61860484
O        0.81770789       9.78811593       0.52359865
H       -2.14911955      -0.61115760       1.86553131
H       -3.22566949       1.62248364       3.02164958
H       -2.13746329       6.64396999       2.30351201
H       -1.56163873       6.53023443       0.63833890
H       -0.46967892       8.40989083       1.76759193
H        0.07334130       7.38672297       3.09597094
H        2.49052331       5.43049000       1.22595971
H        1.71358993       5.68764859       2.78965650
H        0.39315924       4.51571507       0.26912096
H        0.78096656       3.68202226       1.79639351
H        0.97992841       8.74125381      -2.58319575
H        0.29977924      11.37698977      -2.30765304
C        0.86702750      -0.86702750       0.86702750
C        1.78607627      -1.78294307       0.41353796
C        2.35688309      -2.36839631       1.56933669
C        1.77280242      -1.75650994       2.66643820
O        0.84199378      -0.85451696       2.22507764
C        1.96022463      -2.02363111       4.08517482
O        2.42117248      -3.10788199       4.45144199
N        1.62920062      -1.04849599       5.04232822
C        1.41814184      -1.52324836       6.42038626
C        1.63610784      -0.43768903       7.48697762
N        0.90013850       0.77850657       7.13053637
C        1.32172702       1.31138866       5.83830588
C        1.08527576       0.28525542       4.71870278
C       -0.43328418       1.00277121       7.50957793
O       -1.19674321       1.61110344       6.75672840
C       -0.90125835       0.50783287       8.79272039
C       -2.19132075       0.25428567       9.22666080
C       -2.09944413      -0.16003031      10.57707662
C       -0.76360172      -0.10958572      10.89893049
Br      -0.04331270      -0.54121117      12.56413198
O       -0.03226644       0.30509953       9.83137266
H        2.01001329      -2.01229859      -0.61881862
H        3.10567827      -3.14824908       1.61587535
H        2.06847783      -2.37629671       6.64017075
H        0.38237615      -1.88254717       6.46528874
H        1.35059309      -0.83816305       8.45840554
H        2.69859886      -0.17137133       7.53938242
H        0.80302732       2.24897711       5.61187618
H        2.39152252       1.54153738       5.91373003
H        0.01172159       0.15805793       4.53801313
H        1.55671239       0.67002876       3.81076558
H       -3.08457572       0.36263889       8.62534427
H       -2.90965913      -0.44596114      11.23325548
