141
Properties=species:S:1:pos:R:3 pbc="F F F"
C        0.00000000       0.00000000       0.00000000
C        0.86702750       0.86702750      -0.86702750
C        1.58326505       1.95956001      -0.43973225
C        2.23880013       2.46947850      -1.58633745
C        1.90720746       1.64187379      -2.64666930
O        1.04515847       0.67636112      -2.20006879
C        2.26668265       1.74905723      -4.05329068
O        2.63343393       2.83338120      -4.51368133
N        2.20923770       0.62072804      -4.89005909
C        2.14524009       0.87774462      -6.33879176
C        2.65652984      -0.29165962      -7.19590428
N        2.03852616      -1.54734850      -6.76099064
C        2.32914939      -1.84123572      -5.36073057
C        1.79952889      -0.72602109      -4.44521531
C        0.81597000      -2.01343816      -7.27099070
O        0.03412710      -2.62614810      -6.54090275
C        0.48339738      -1.76245642      -8.66268821
C       -0.74997568      -1.76065665      -9.29168671
C       -0.51324010      -1.51449510     -10.66539800
C        0.85079859      -1.40758035     -10.80169624
O        1.46321272      -1.56860686      -9.59940083
H        1.62050168       2.35041326       0.56742167
H        2.87962606       3.33906263      -1.65111402
H        2.70575395       1.78223965      -6.59695168
H        1.09002143       1.07093629      -6.56925434
H        2.46887260      -0.06619571      -8.24448480
H        3.74040120      -0.40223632      -7.07118774
H        1.90760603      -2.80828436      -5.06660472
H        3.41893896      -1.91822555      -5.26300175
H        0.70371145      -0.73699862      -4.42496397
H        2.17687754      -0.91672929      -3.43730096
H       -1.70097266      -1.92180808      -8.80091040
H       -1.24734725      -1.43848337     -11.45538811
C        1.54365841      -1.16382803     -12.04029629
C        2.12392851      -0.95968546     -13.07762383
Br       3.06217619      -0.62960419     -14.75489472
C       -0.86702750      -0.86702750      -0.86702750
C       -0.42515017      -1.65292071      -1.90448643
C       -1.57729368      -2.27930151      -2.43802089
C       -2.65709548      -1.86112074      -1.67753434
O       -2.21428674      -0.97534321      -0.73195844
C       -4.07288948      -2.16119059      -1.83495049
O       -4.50057385      -2.55775051      -2.92217211
N       -4.95624049      -2.01242395      -0.75136039
C       -6.38717328      -1.89513555      -1.07946764
C       -7.31967283      -2.31100785       0.06990618
N       -6.91325063      -1.65445109       1.31553341
C       -5.54311004      -1.99393163       1.68839743
C       -4.55391840      -1.55984218       0.59503747
C       -7.38525217      -0.38930960       1.70103922
O       -6.64739136       0.38685200       2.31165762
C       -8.74680159      -0.00632194       1.36949435
C       -9.31583752       1.25280122       1.28198192
C      -10.68667265       1.06712101       0.98188884
C      -10.88256072      -0.29287866       0.93052490
O       -9.71920968      -0.95079405       1.17599704
H        0.59577212      -1.75424591      -2.24501946
H       -1.63294886      -2.95707634      -3.27977752
H       -6.63040287      -2.48566804      -1.96887437
H       -6.55831592      -0.84091783      -1.33097831
H       -8.34687681      -2.08695503      -0.21332985
H       -7.25166578      -3.39294673       0.23525989
H       -5.27341998      -1.54073116       2.64822475
H       -5.50079199      -3.08214724       1.81922406
H       -4.48220914      -0.46678170       0.55731405
H       -3.57471988      -1.97298493       0.85025560
H       -8.78829146       2.18716545       1.42299636
H      -11.43668295       1.83182483       0.83530064
C      -12.14032882      -0.93970650       0.65990865
C      -13.19370961      -1.48142481       0.43326754
Br     -14.89693724      -2.35733751       0.06680803
C       -0.86702750       0.86702750       0.86702750
C       -1.91173892       0.42669004       1.64412835
C       -2.44216716       1.57826267       2.27418625
C       -1.67283321       2.65597524       1.86694211
O       -0.72463959       2.21279514       0.98415366
C       -1.82365572       4.07088127       2.17449357
O       -2.91066895       4.50267358       2.56715392
N       -0.73399431       4.94863429       2.03739622
C       -1.05292933       6.38216245       1.92668468
C        0.09944487       7.30533150       2.35488786
N        1.34653073       6.89539586       1.70330317
C        1.70925856       5.52107739       2.03682542
C        0.61266934       4.54099274       1.59039972
C        1.74234138       7.37256961       0.44329431
O        2.35319212       6.63569234      -0.33361848
C        1.42113927       8.73830870       0.06645974
C        1.34448641       9.31529203      -1.18975124
C        1.05140664      10.68676614      -0.99769670
C        0.99311182      10.87490954       0.36311676
O        1.22778076       9.70624794       1.01553950
H       -2.25890078      -0.59276960       1.73736208
H       -3.28759738       1.63491534       2.94729000
H       -1.94437959       6.62718240       2.51338330
H       -1.29714697       6.56103032       0.87203476
H       -0.17637307       8.33550953       2.13527909
H        0.25795363       7.22994423       3.43736201
H        2.67015339       5.24836673       1.58771304
H        1.83335605       5.47154651       3.12552471
H        0.58102623       4.47597506       0.49672796
H        0.85962931       3.55786684       1.99921168
H        1.48793478       8.79245163      -2.12638720
H        0.91380890      11.44214482      -1.75877843
C        0.72609558      12.13041790       1.01580435
C        0.50246948      13.18190615       1.56243021
Br       0.14088499      14.88207372       2.44627799
C        0.86702750      -0.86702750       0.86702750
C        1.87461452      -1.68803650       0.41990629
C        2.40860584      -2.31388023       1.57213001
C        1.71388890      -1.81838431       2.66347736
O        0.75342299      -0.95011066       2.21805474
C        1.82720013      -2.17030149       4.07152894
O        2.33737627      -3.24520453       4.39791566
N        1.36833157      -1.28714636       5.06454691
C        1.10194151      -1.86871650       6.39111846
C        1.17488339      -0.84770127       7.53818984
N        0.38116092       0.34009003       7.21109741
C        0.84756488       0.98720705       5.98828641
C        0.75553904       0.02782174       4.79100582
C       -0.98629187       0.45090832       7.51072273
O       -1.73970886       1.05920369       6.74779430
C       -1.50090951      -0.16080642       8.72373227
C       -2.79570280      -0.52664630       9.05011087
C       -2.76291043      -1.02655063      10.37402260
C       -1.45737012      -0.91220910      10.79007550
O       -0.68896512      -0.37826593       9.80470587
H        2.18016425      -1.83048616      -0.60715715
H        3.20496017      -3.04502752       1.61981502
H        1.79413801      -2.69107856       6.59972871
H        0.09277312      -2.29648417       6.34095477
H        0.85552961      -1.33202009       8.45961198
H        2.21079499      -0.51749830       7.68105932
H        0.28099651       1.90270125       5.78763113
H        1.89176095       1.28028391       6.15223812
H       -0.29271164      -0.15572957       4.52865886
H        1.25695969       0.50414219       3.94463171
H       -3.65355445      -0.43495673       8.39672738
H       -3.59214334      -1.40896877      10.95273206
C       -0.96379925      -1.29694368      12.08698224
C       -0.55043365      -1.61915889      13.17314164
Br       0.11794357      -2.14015363      14.92936953
