169
Properties=species:S:1:pos:R:3 pbc="F F F"
C        0.00000000       0.00000000       0.00000000
C        0.88117382       0.88117382      -0.88117382
C        0.43584489       1.27077049      -2.14033461
C        1.25577113       2.06584286      -2.94950734
C        2.53589710       2.46013290      -2.52605153
C        2.93298862       2.10210688      -1.23106974
C        2.12358097       1.30096886      -0.41807607
N        3.30608467       3.28952735      -3.37373323
C        4.71252842       3.46682835      -3.39789983
N        5.50925207       2.75575284      -2.56838512
C        6.83735624       2.95557958      -2.63140095
C        7.66928767       2.20236727      -1.81511985
C        9.05615229       2.34786021      -1.86835884
C        9.61563826       3.26364773      -2.74641573
C        8.78655041       4.03500949      -3.56444745
C        7.40304187       3.89824912      -3.52085052
N        6.63407831       4.63814495      -4.34377128
C        5.30567979       4.40450584      -4.27023442
N        4.61111703       5.13761559      -5.27015564
S        4.09102254       4.25534051      -6.60818729
O        3.37654182       3.08506611      -6.14157871
O        3.45058974       5.20648568      -7.49236132
C        5.58765154       3.70892721      -7.40960699
C        6.33927370       2.66413578      -6.85991511
C        7.52884757       2.26654100      -7.47540288
C        7.93033293       2.87515283      -8.66427180
Br       9.53826842       2.33359261      -9.49599326
C        7.15172474       3.87622438      -9.24726482
C        5.97876787       4.29923973      -8.61660029
H       -0.54103983       0.96595661      -2.50326253
H        0.88739714       2.36551881      -3.92784880
H        3.88479013       2.43775449      -0.83000943
H        2.47505581       1.01851271       0.56967096
H        2.97078295       3.22886025      -4.34054438
H        7.22749999       1.48003883      -1.13244799
H        9.68984767       1.73999799      -1.22454543
H       10.69600841       3.38023985      -2.80147170
H        9.22796071       4.74752694      -4.25512769
H        5.16110141       5.94359274      -5.55859834
H        6.02262908       2.16174019      -5.94771696
H        8.12975275       1.48239588      -7.02387408
H        7.45053615       4.33114706     -10.18854084
H        5.37758856       5.07769781      -9.08169703
C       -0.88117382      -0.88117382      -0.88117382
C       -0.62847027      -0.97222734      -2.24625238
C       -1.45030926      -1.76980087      -3.05101120
C       -2.54611404      -2.46409459      -2.51187291
C       -2.74020907      -2.40011194      -1.12584424
C       -1.92879494      -1.59928582      -0.31454513
N       -3.32166601      -3.27924580      -3.36843344
C       -4.66006199      -3.71606359      -3.20113102
N       -5.38658522      -3.31225406      -2.13455075
C       -6.65294423      -3.74970124      -2.02169131
C       -7.42282510      -3.30970340      -0.95424628
C       -8.75289904      -3.70732898      -0.81214332
C       -9.31640580      -4.56100326      -1.74829266
C       -8.54671509      -5.01884241      -2.82044985
C       -7.22034071      -4.62877596      -2.97302485
N       -6.51483839      -5.06685883      -4.03429732
C       -5.25158224      -4.59828955      -4.13054826
N       -4.65306766      -5.01576114      -5.35005945
S       -4.54616185      -3.84815875      -6.56022973
O       -3.95187590      -2.65267230      -5.99863845
O       -3.94311375      -4.50562678      -7.70069621
C       -6.23612017      -3.47720241      -6.99286316
C       -7.02577300      -2.69688722      -6.14066437
C       -8.35903515      -2.44102912      -6.47072718
C       -8.87802059      -2.91736114      -7.67437583
Br     -10.68079506      -2.56755174      -8.11950749
C       -8.07558347      -3.64485611      -8.55477436
C       -6.75145213      -3.93093472      -8.21222104
H        0.19952129      -0.43224629      -2.69545432
H       -1.23279068      -1.83333405      -4.11464002
H       -3.53169177      -2.97124731      -0.64961497
H       -2.12539853      -1.55069971       0.75220069
H       -3.19151968      -3.00196591      -4.34670198
H       -6.97977415      -2.63469216      -0.22552050
H       -9.34056521      -3.34264321       0.02881732
H      -10.35461397      -4.87173539      -1.65137060
H       -8.99249892      -5.68300092      -3.55511549
H       -5.11215201      -5.85543436      -5.69570611
H       -6.62490005      -2.29546143      -5.21172474
H       -8.97987059      -1.86864044      -5.78751167
H       -8.47232803      -3.99225184      -9.50564418
H       -6.13385418      -4.49559644      -8.90753279
C       -0.88117382       0.88117382       0.88117382
C       -1.90755783       1.62789543       0.31149673
C       -2.70168452       2.44605137       1.12338544
C       -2.46758051       2.54983884       2.50466218
C       -1.46584328       1.74191851       3.05840345
C       -0.66179311       0.92705940       2.25377338
N       -3.32259408       3.36798478       3.27876639
C       -3.07006320       3.96979364       4.53739976
N       -1.86297381       3.83799129       5.13242493
C       -1.66993357       4.43065795       6.32374525
C       -0.42293992       4.33824263       6.92559222
C       -0.16243232       4.96508402       8.14485500
C       -1.16583006       5.68857423       8.77129743
C       -2.42808043       5.77841800       8.17950892
C       -2.69930872       5.15865438       6.96417841
N       -3.91957853       5.28893931       6.40747670
C       -4.07945682       4.69719586       5.20376737
N       -5.35188577       5.01222564       4.65477685
S       -5.36334237       6.16517527       3.42603270
O       -4.37619644       5.79350663       2.43348357
O       -6.75158575       6.34297979       3.05487120
C       -4.82420887       7.67543189       4.20654499
C       -3.47501861       7.85722680       4.53107918
C       -3.06776415       9.02871796       5.17430934
C       -3.99854243      10.03329114       5.43792399
Br      -3.44447140      11.61780671       6.30557617
C       -5.33379152       9.88025524       5.06116718
C       -5.75076546       8.69598899       4.44785345
H       -2.10081556       1.58338872      -0.75602496
H       -3.50317180       3.01705610       0.66053685
H       -1.28877219       1.73392300       4.12985887
H        0.12445007       0.33545708       2.71289055
H       -3.80534850       4.04995504       2.68488403
H        0.36388905       3.77571151       6.42816434
H        0.82612536       4.88612670       8.59438975
H       -0.97175471       6.18738236       9.71858288
H       -3.21035499       6.35041191       8.66984843
H       -5.99991254       5.26653073       5.39684921
H       -2.73350760       7.09296387       4.30561476
H       -2.02680512       9.14887370       5.46034389
H       -6.05360758      10.67494067       5.24167580
H       -6.79312105       8.58881946       4.15504289
C        0.88117382      -0.88117382       0.88117382
C        0.90965792      -2.25748403       0.67980804
C        1.70792366      -3.06130124       1.50189643
C        2.46553340      -2.50865423       2.54789391
C        2.46254469      -1.11475333       2.68886723
C        1.66169794      -0.30387632       1.87705163
N        3.27751723      -3.36666998       3.32515805
C        3.77346046      -3.16571697       4.63807917
N        3.44014893      -2.05680310       5.33643800
C        3.93175966      -1.91299743       6.57957968
C        3.56407764      -0.80011405       7.32258308
C        4.01959039      -0.62307797       8.62970298
C        4.85852913      -1.57022905       9.19694354
C        5.24385200      -2.68852164       8.45363371
C        4.79563275      -2.87617331       7.15033546
N        5.16420703      -3.98034825       6.47143926
C        4.64228256      -4.10621064       5.23192684
N        4.98847553      -5.36345685       4.66695588
S        3.77198739      -6.52930643       4.65325652
O        2.57616804      -5.94368773       4.08333087
O        4.36065976      -7.71737449       4.07140248
C        3.45240718      -6.88167167       6.37210690
C        2.73746286      -5.96937386       7.15648787
C        2.52251231      -6.23759550       8.51068365
C        2.97265246      -7.43849422       9.05861088
Br       2.67820685      -7.79985538      10.88979205
C        3.63326612      -8.37733226       8.26461556
C        3.87923407      -8.09749434       6.91787948
H        0.32025462      -2.71621604      -0.10829133
H        1.72189361      -4.13417655       1.32469459
H        3.08263505      -0.63167803       3.43824098
H        1.66193756       0.77071298       2.03267297
H        2.95795441      -4.33737255       3.24486062
H        2.90037752      -0.06257475       6.87703454
H        3.71115210       0.25367630       9.19691529
H        5.21390851      -1.44603236      10.21777909
H        5.89659722      -3.43145406       8.90256405
H        5.83191614      -5.72445608       5.10692026
H        2.35628956      -5.04122111       6.73457555
H        2.00196254      -5.50878897       9.12527120
H        3.95948645      -9.32538508       8.68535252
H        4.39173393      -8.83794625       6.30730322
