190
Properties=species:S:1:pos:R:3 pbc="F F F"
C        1.79107784       1.79107784      -1.79107784
C        1.34574892       2.18067451      -3.05023863
C        2.16567516       2.97574688      -3.85941137
C        3.44580113       3.37003693      -3.43595555
C        3.84289264       3.01201091      -2.14097377
C        3.03348499       2.21087288      -1.32798009
N        4.21598869       4.19943138      -4.28363726
C        5.62243244       4.37673238      -4.30780386
N        6.41915609       3.66565686      -3.47828915
C        7.74726027       3.86548360      -3.54130498
C        8.57919169       3.11227129      -2.72502387
C        9.96605631       3.25776424      -2.77826286
C       10.52554229       4.17355175      -3.65631975
C        9.69645443       4.94491352      -4.47435147
C        8.31294589       4.80815315      -4.43075455
N        7.54398233       5.54804898      -5.25367530
C        6.21558382       5.31440987      -5.18013844
N        5.52102105       6.04751961      -6.18005966
S        5.00092656       5.16524453      -7.51809132
O        4.28644584       3.99497014      -7.05148274
O        4.36049377       6.11638970      -8.40226534
C        6.49755557       4.61883123      -8.31951102
C        7.24917773       3.57403980      -7.76981913
C        8.43875159       3.17644502      -8.38530691
C        8.84023695       3.78505686      -9.57417582
Br      10.44817244       3.24349663     -10.40589728
C        8.06162876       4.78612841     -10.15716884
C        6.88867189       5.20914376      -9.52650432
H        0.36886420       1.87586064      -3.41316656
H        1.79730117       3.27542283      -4.83775282
H        4.79469416       3.34765851      -1.73991345
H        3.38495983       1.92841673      -0.34023306
H        3.88068697       4.13876428      -5.25044840
H        8.13740401       2.38994285      -2.04235202
H       10.59975170       2.64990202      -2.13444945
H       11.60591243       4.29014387      -3.71137573
H       10.13786473       5.65743097      -5.16503172
H        6.07100543       6.85349676      -6.46850237
H        6.93253310       3.07164421      -6.85762098
H        9.03965677       2.39229991      -7.93377810
H        8.36044018       5.24105108     -11.09844486
H        6.28749258       5.98760183      -9.99160106
C       -1.79107784      -1.79107784      -1.79107784
C       -2.83133497      -1.22453472      -2.52079237
C       -3.64538833      -2.04092491      -3.31452017
C       -3.44989535      -3.43092398      -3.37097428
C       -2.35904973      -3.96453546      -2.67229214
C       -1.54472518      -3.15758437      -1.87002841
N       -4.28382835      -4.20026604      -4.21496294
C       -4.58415418      -5.58379098      -4.13902351
N       -4.09056680      -6.33999788      -3.13253742
C       -4.40692613      -7.64639272      -3.10073000
C       -3.94129065      -8.42475028      -2.05044592
C       -4.27088370      -9.77731814      -1.95388157
C       -5.07224736     -10.35812060      -2.92504583
C       -5.53694340      -9.58616276      -3.99261326
C       -5.21577464      -8.23700842      -4.09907053
N       -5.70398394      -7.51493257      -5.12679010
C       -5.38351070      -6.20271074      -5.12391068
N       -6.05902942      -5.51887684      -6.17069406
S       -7.38576381      -4.58725693      -5.71124167
O       -6.99045389      -3.72840491      -4.61403991
O       -7.92319884      -4.02389589      -6.93205407
C       -8.58065950      -5.75949036      -5.09574796
C       -8.40517118      -6.34916648      -3.83869900
C       -9.32772769      -7.29280396      -3.37997187
C      -10.44737955      -7.59908558      -4.15300451
Br     -11.69491101      -8.87372385      -3.52893149
C      -10.65669276      -6.96797729      -5.38025596
C       -9.71868710      -6.04857060      -5.85706227
H       -3.01937471      -0.15583428      -2.48268241
H       -4.44927765      -1.57861895      -3.88258023
H       -2.12342053      -5.02276246      -2.73608313
H       -0.72502760      -3.60914412      -1.31943791
H       -5.14830477      -3.69261554      -4.42897934
H       -3.31859770      -7.96440110      -1.28670008
H       -3.90116203     -10.36664935      -1.11629179
H       -5.34144685     -11.41006090      -2.85592429
H       -6.16898724     -10.04256482      -4.74877535
H       -6.31243174      -6.17180265      -6.90877016
H       -7.55052377      -6.09814429      -3.21313024
H       -9.16672195      -7.77762195      -2.42139087
H      -11.54379490      -7.18627622      -5.96986499
H       -9.89366169      -5.55981670      -6.81321709
C       -1.79107784       1.79107784       1.79107784
C       -3.15979075       1.86424777       1.55262354
C       -3.95950721       2.68663333       2.35469287
C       -3.40357569       3.46356185       3.38465607
C       -2.03283301       3.32436113       3.63868318
C       -1.22409568       2.51092921       2.83731308
N       -4.26574652       4.25110641       4.18220440
C       -3.95402244       5.39858301       4.95436322
N       -2.70171360       5.90869221       4.95269629
C       -2.45582035       7.00076179       5.69746670
C       -1.18553717       7.55887419       5.67207549
C       -0.88987507       8.71212161       6.40008673
C       -1.87802275       9.30992650       7.16746455
C       -3.15707543       8.74969044       7.20895355
C       -3.46381172       7.60103911       6.48700276
N       -4.71532373       7.10300600       6.52737688
C       -4.93728075       6.01587207       5.75697931
N       -6.31356490       5.66190747       5.77312796
S       -7.20162713       6.07930930       4.40332598
O       -6.49264182       5.60910791       3.23114898
O       -8.56183354       5.65549816       4.66181711
C       -7.19647621       7.86256814       4.37685347
C       -6.04448984       8.55742436       3.99112246
C       -6.03864903       9.95445468       4.00739981
C       -7.19821557      10.64770253       4.35355153
Br      -7.18827788      12.53716299       4.37212548
C       -8.36667389       9.95773534       4.68051680
C       -8.36620362       8.56051826       4.69759809
H       -3.61589298       1.29031228       0.75168613
H       -5.02815409       2.72547406       2.15684867
H       -1.56564359       3.85101386       4.46560867
H       -0.16015080       2.44856043       3.04489840
H       -5.15371605       4.41816283       3.69802077
H       -0.41464185       7.09136752       5.06368951
H        0.11161713       9.13736708       6.35835321
H       -1.66063536      10.21343511       7.73336157
H       -3.93045825       9.22333248       7.80653668
H       -6.75708919       6.01995203       6.61596333
H       -5.14143855       8.02860929       3.69175046
H       -5.13035484      10.48961572       3.74576422
H       -9.27827077      10.49838224       4.92328311
H       -9.28349878       8.03286124       4.95033545
C        1.79107784      -1.79107784       1.79107784
C        1.33877029      -3.04337267       2.19451910
C        2.14557699      -3.83963768       3.01561873
C        3.39816331      -3.38908683       3.46454347
C        3.85173219      -2.14967060       2.99447453
C        3.04907760      -1.34332096       2.17993941
N        4.18231337      -4.25050561       4.26623835
C        5.22339669      -3.91521040       5.16836158
N        5.54879451      -2.62197927       5.39232832
C        6.54026805      -2.35379925       6.25998155
C        6.85621621      -1.02986525       6.53040540
C        7.85328587      -0.69960240       7.44919514
C        8.54605306      -1.70878871       8.10057202
C        8.24359949      -3.04495239       7.82716754
C        7.25140418      -3.38635107       6.91409833
N        6.96592933      -4.68495478       6.69482250
C        5.95504335      -4.92380431       5.83128446
N        5.65520858      -6.31208078       5.78131097
S        4.27238009      -6.80130698       6.61057534
O        3.16895409      -5.95203252       6.21191211
O        4.19345313      -8.23792152       6.44777416
C        4.62764296      -6.47978752       8.32846734
C        4.60566958      -5.16898954       8.81837754
C        4.91988876      -4.92325493      10.15735984
C        5.19814108      -5.99088037      11.01044818
Br       5.62016471      -5.65583612      12.82156552
C        5.16178804      -7.30414508      10.53899290
C        4.88069952      -7.55094999       9.19267045
H        0.36700427      -3.41133666       1.87955047
H        1.77731861      -4.81809288       3.31506533
H        4.84034484      -1.78482713       3.25709416
H        3.42086976      -0.37556323       1.85717663
H        3.59758801      -4.97191998       4.70039166
H        6.30617112      -0.24068377       6.02284399
H        8.07835739       0.34623779       7.65198357
H        9.32043120      -1.46279282       8.82420801
H        8.78413208      -3.83315462       8.34304071
H        6.46441272      -6.85555822       6.07303362
H        4.36268628      -4.32926348       8.16984853
H        4.94071359      -3.90101098      10.52401021
H        5.35138231      -8.13796723      11.21058658
H        4.85134905      -8.57864359       8.83670284
C       -0.00445707       0.01189536      -1.78238275
H       -0.66409135       0.67374010      -2.43557963
H        0.65740317      -0.63156657      -2.45157240
C       -0.90989263      -0.90692880      -0.91072765
C        0.90977584       0.90977584      -0.90977584
C       -0.00465871       1.77757030       0.00794375
H       -0.66225468       2.44313916      -0.64384735
H        0.64322798       2.43503045       0.67728295
C       -1.78241447       0.00034974      -0.00472694
H       -2.45427497      -0.65498947       0.64260836
H       -2.43311707       0.67328779      -0.65473579
C       -0.91132561       0.90220522       0.91563759
C       -0.01476271      -0.02253852       1.78660255
H       -0.67934791      -0.69751639       2.42135241
H        0.63392994       0.61504881       2.47327442
C        0.01484550      -1.77751727      -0.01636693
H        0.67870853      -2.42144646      -0.68295456
H       -0.62264859      -2.45592969       0.64226336
C        1.78714474       0.01002794       0.00389507
H        2.44202412       0.67113390       0.66197326
H        2.45385902      -0.65136977      -0.64189061
C        0.91606151      -0.90478549       0.90901405
