177
Properties=species:S:1:pos:R:3 pbc="F F F"
C        0.00000000       0.00000000       0.00000000
C        0.88117382       0.88117382      -0.88117382
C        0.43584489       1.27077049      -2.14033461
C        1.25577113       2.06584286      -2.94950734
C        2.53589710       2.46013290      -2.52605153
C        2.93298862       2.10210688      -1.23106974
C        2.12358097       1.30096886      -0.41807607
N        3.30608467       3.28952735      -3.37373323
C        4.71252842       3.46682835      -3.39789983
N        5.50925207       2.75575284      -2.56838512
C        6.83735624       2.95557958      -2.63140095
C        7.66928767       2.20236727      -1.81511985
C        9.05615229       2.34786021      -1.86835884
C        9.61563826       3.26364773      -2.74641573
C        8.78655041       4.03500949      -3.56444745
C        7.40304187       3.89824912      -3.52085052
N        6.63407831       4.63814495      -4.34377128
C        5.30567979       4.40450584      -4.27023442
N        4.61111703       5.13761559      -5.27015564
S        4.09102254       4.25534051      -6.60818729
O        3.37654182       3.08506611      -6.14157871
O        3.45058974       5.20648568      -7.49236132
C        5.58765154       3.70892721      -7.40960699
C        6.33927370       2.66413578      -6.85991511
C        7.52884757       2.26654100      -7.47540288
C        7.93033293       2.87515283      -8.66427180
C        7.15172474       3.87622438      -9.24726482
C        5.97876787       4.29923973      -8.61660029
H       -0.54103983       0.96595661      -2.50326253
H        0.88739714       2.36551881      -3.92784880
H        3.88479013       2.43775449      -0.83000943
H        2.47505581       1.01851271       0.56967096
H        2.97078295       3.22886025      -4.34054438
H        7.22749999       1.48003883      -1.13244799
H        9.68984767       1.73999799      -1.22454543
H       10.69600841       3.38023985      -2.80147170
H        9.22796071       4.74752694      -4.25512769
H        5.16110141       5.94359274      -5.55859834
H        6.02262908       2.16174019      -5.94771696
H        8.12975275       1.48239588      -7.02387408
H        7.45053615       4.33114706     -10.18854084
H        5.37758856       5.07769781      -9.08169703
C        9.15570031       2.46244334      -9.29810590
C       10.18194548       2.11679915      -9.82894196
Br      11.84129714       1.55792171     -10.68725897
C       -0.88117382      -0.88117382      -0.88117382
C       -0.50333149      -1.15093705      -2.19268146
C       -1.32416130      -1.94686275      -3.00009728
C       -2.54032214      -2.46117756      -2.52058184
C       -2.86541482      -2.22174575      -1.17900467
C       -2.05518470      -1.42081003      -0.36663117
N       -3.31213590      -3.28501825      -3.37219111
C       -4.70131864      -3.56224244      -3.31369551
N       -5.48192400      -2.96903246      -2.38243357
C       -6.79445729      -3.26032755      -2.36955193
C       -7.61391929      -2.62685645      -1.44599904
C       -8.98789663      -2.86903133      -1.41544338
C       -9.54640457      -3.76142692      -2.31787023
C       -8.72866771      -4.41304561      -3.24429403
C       -7.35813941      -4.17914996      -3.28485215
N       -6.60271986      -4.80350663      -4.20976804
C       -5.29142221      -4.47925979      -4.20973804
N       -4.62338698      -5.09027022      -5.30523106
S       -4.26321851      -4.08368189      -6.60764994
O       -3.59772773      -2.89884874      -6.10661017
O       -3.62581510      -4.92344312      -7.60017852
C       -5.84787210      -3.59460362      -7.26371002
C       -6.62663173      -2.64705875      -6.58963411
C       -7.88211216      -2.29631332      -7.09236598
C       -8.32689208      -2.85045564      -8.29240983
C       -7.52667344      -3.75027203      -8.99826847
C       -6.28489667      -4.12855217      -8.48115906
H        0.42157634      -0.75184980      -2.59790586
H       -1.00853991      -2.15181681      -4.02040804
H       -3.76049382      -2.65227457      -0.73978566
H       -2.35213709      -1.23239765       0.66063720
H       -3.05303940      -3.13461110      -4.35253708
H       -7.17362634      -1.92227086      -0.74408961
H       -9.61280487      -2.35404327      -0.68754296
H      -10.61750408      -3.95239642      -2.30781946
H       -9.16983436      -5.10729793      -3.95348305
H       -5.13694640      -5.91272657      -5.61361952
H       -6.27921452      -2.18600678      -5.66686492
H       -8.50036344      -1.59047925      -6.54518001
H       -7.86168608      -4.16081444      -9.94772353
H       -5.66774688      -4.82778661      -9.04144991
C       -9.62035037      -2.48603259      -8.80986660
C      -10.70362168      -2.18082828      -9.24323664
Br     -12.45517977      -1.68733872      -9.94395934
C       -0.88117382       0.88117382       0.88117382
C       -1.92472960       1.60678852       0.31543187
C       -2.71894243       2.42517573       1.12700317
C       -2.46818575       2.55031609       2.50357970
C       -1.44866977       1.76297964       3.05451584
C       -0.64448392       0.94811472       2.25002726
N       -3.32376905       3.36739599       3.27818022
C       -3.06279419       3.98908680       4.52537561
N       -1.84638339       3.88098457       5.10602206
C       -1.64564822       4.49186435       6.28682421
C       -0.38977291       4.42375475       6.87324712
C       -0.12166953       5.07005625       8.08064556
C       -1.12628825       5.78859855       8.71081493
C       -2.39725196       5.85407079       8.13468460
C       -2.67611655       5.21475771       6.93126726
N       -3.90518403       5.32167833       6.38913217
C       -4.07293731       4.71199120       5.19549153
N       -5.35650277       5.00304453       4.65934095
S       -5.39931308       6.13935764       3.41587962
O       -4.42039584       5.76751064       2.41528016
O       -6.79452776       6.29405158       3.06085740
C       -4.87008102       7.66675044       4.16935429
C       -3.51928905       7.87046466       4.47357088
C       -3.11921873       9.05560597       5.09596675
C       -4.05970254      10.05132325       5.35873177
C       -5.39762011       9.87585322       5.00174061
C       -5.80684753       8.67820844       4.40955193
H       -2.13132849       1.54561172      -0.74876089
H       -3.53391393       2.97946195       0.66738886
H       -1.25750733       1.77150372       4.12354300
H        0.15547033       0.37298559       2.70638229
H       -3.82324788       4.03506113       2.68187856
H        0.39786880       3.86502067       6.37283494
H        0.87364379       5.01000276       8.51803213
H       -0.92646637       6.30241499       9.64883860
H       -3.18055820       6.42223165       8.62782549
H       -5.99808062       5.25866445       5.40654741
H       -2.77072588       7.11304575       4.24831459
H       -2.07629115       9.19314933       5.36658224
H       -6.12548340      10.66337728       5.18136337
H       -6.85143220       8.55354096       4.13201024
C       -3.64488790      11.27292126       5.99844039
C       -3.29748064      12.29600959       6.53419635
Br      -2.73575248      13.95025690       7.40046844
C        0.88117382      -0.88117382       0.88117382
C        0.96924834      -2.24688081       0.63082085
C        1.76685340      -3.05159493       1.45267300
C        2.46415789      -2.51172177       2.54620187
C        2.40308463      -1.12522255       2.73785806
C        1.60225827      -0.31394297       1.92642465
N        3.27915986      -3.36835506       3.32183034
C        3.71875223      -3.19939516       4.65910921
N        3.31824707      -2.13073656       5.38440640
C        3.75823578      -2.01635321       6.64974778
C        3.32162399      -0.94668331       7.41846748
C        3.72196255      -0.80286583       8.74754296
C        4.57494993      -1.73954900       9.31120280
C        5.02939464      -2.81396361       8.54264910
C        4.63660273      -2.96826021       7.21727857
N        5.07142964      -4.03163554       6.51292935
C        4.60035524      -4.12934734       5.25071747
N        5.01447696      -5.35072593       4.65368536
S        3.84445385      -6.55893572       4.55116076
O        2.64890926      -5.99623566       3.95804172
O        4.49870834      -7.70172077       3.94900762
C        3.47581885      -6.98777292       6.24259397
C        2.69853112      -6.13268455       7.03210891
C        2.44452499      -6.45982030       8.36644616
C        2.91959691      -7.66338798       8.88677267
C        3.64398911      -8.54660212       8.08462272
C        3.92825547      -8.20701482       6.75933760
H        0.42691540      -2.69660952      -0.19534560
H        1.82802743      -4.11573769       1.23699963
H        2.97655421      -0.64859124       3.52740859
H        1.55599842       0.75325071       2.12114985
H        2.99984023      -4.34634851       3.19399884
H        2.64713938      -0.21753074       6.97531669
H        3.35990966       0.03984617       9.33432760
H        4.88777394      -1.64128927      10.34865674
H        5.69302068      -3.54903097       8.98856369
H        5.85435770      -5.69707481       5.11185998
H        2.29807734      -5.20374570       6.63026318
H        1.87454071      -5.77440883       8.98707317
H        3.99036504      -9.49737905       8.48247996
H        4.49049652      -8.90450229       6.14198458
C        2.65492591      -7.99959010      10.26173355
C        2.43326395      -8.28115937      11.41326328
Br       2.07485530      -8.73643307      13.27518946
