141
Properties=species:S:1:pos:R:3 pbc="F F F"
C        0.00000000       0.00000000       0.00000000
C        0.88200252       0.88200252      -0.88200252
C        0.41498622       2.12840829      -1.29674837
C        1.22134093       2.93944530      -2.09564990
C        2.48964969       2.50063772      -2.48496450
C        2.95227884       1.24001243      -2.07945984
C        2.14532870       0.43512977      -1.26391867
C        4.29937699       0.72559648      -2.45805600
O        4.85861614      -0.08313925      -1.72287957
N        4.80696946       1.19715937      -3.65776765
N        6.03752395       0.78452111      -4.08683471
C        6.43415917       1.23662549      -5.23214593
C        5.70459416       2.18717874      -6.18602016
O        4.60926981       2.66575694      -5.98132497
N        6.55119288       2.35261971      -7.26113411
C        7.72191314       1.61769446      -7.08098609
C        8.79973228       1.53631970      -7.93420929
C        9.87913474       0.73007444      -7.53744065
C        9.86896082       0.02031356      -6.30591398
C       11.02348851      -0.84246235      -5.87160575
C        8.75072835       0.12627050      -5.45933320
C        7.70476296       0.92578212      -5.87377461
H       -0.56935854       2.47906607      -0.99632614
H        0.86499256       3.91855365      -2.40786715
H        3.10836656       3.16769245      -3.07956867
H        2.50898701      -0.53603764      -0.93379387
H        4.24861388       1.78760683      -4.27460924
H        6.33210031       2.93456302      -8.05643591
H        8.81508839       2.07517516      -8.87526956
H       10.82524200      -1.31914764      -4.90538697
H       11.92942049      -0.23875869      -5.75780733
H       11.19897441      -1.64217164      -6.59797481
H        8.69572219      -0.39546083      -4.50739143
C       11.00138229       0.65598590      -8.43670220
C       11.94126460       0.59393676      -9.18983375
Br      13.46097482       0.49360853     -10.40758377
C       -0.88200252      -0.88200252      -0.88200252
C       -1.19539361      -0.46868367      -2.17606560
C       -1.99405270      -1.27575077      -2.98663266
C       -2.48435073      -2.49058705      -2.50031412
C       -2.18071701      -2.89813881      -1.19289530
C       -1.36508735      -2.09180719      -0.38748260
C       -2.66946495      -4.18750224      -0.62606228
O       -2.01727674      -4.73773166       0.25665194
N       -3.86881895      -4.65320841      -1.13986912
N       -4.39493190      -5.82973528      -0.68421258
C       -5.53443984      -6.18680862      -1.18168213
C       -6.38606162      -5.46293737      -2.22879406
O       -6.08798221      -4.41231172      -2.75605779
N       -7.49944038      -6.25497977      -2.41052654
C       -7.43331428      -7.38720888      -1.60007053
C       -8.35380509      -8.40736802      -1.50908817
C       -8.07035032      -9.45668250      -0.61961701
C       -6.88322322      -9.47398226       0.16201712
C       -6.57017405     -10.59687173       1.11441387
C       -5.96548247      -8.41466629       0.04381672
C       -6.26896905      -7.39724846      -0.83810218
H       -0.81601227       0.47364541      -2.56366681
H       -2.22733858      -0.96232645      -4.00174834
H       -3.07626712      -3.11362833      -3.16573223
H       -1.11394605      -2.41402610       0.62122891
H       -4.41565959      -4.09736251      -1.79780785
H       -8.24524923      -6.02645631      -3.05139370
H       -9.26160005      -8.40149068      -2.10244238
H       -5.62261368     -10.42572533       1.63685767
H       -6.47728012     -11.54289474       0.57170573
H       -7.35054225     -10.68142000       1.87718468
H       -5.04344920      -8.38269857       0.61849497
C       -9.03900399     -10.51891748      -0.53614892
C       -9.85025143     -11.40853928      -0.46624440
Br     -11.16196994     -12.84698248      -0.35321470
C       -0.88200252       0.88200252       0.88200252
C       -1.91554467       0.30558713       1.61901109
C       -2.71760230       1.10732699       2.43150683
C       -2.49046878       2.48442347       2.50035966
C       -1.45984075       3.06525736       1.74665300
C       -0.64648050       2.25395025       0.94394639
C       -1.16772174       4.52660276       1.78870497
O       -0.02621448       4.91481737       1.55732460
N       -2.24885230       5.34747631       2.06556788
N       -2.07793011       6.70225830       2.12869136
C       -3.13629794       7.41047643       2.35615621
C       -4.57530524       6.93194739       2.57054043
O       -4.92703627       5.77143124       2.55788420
N       -5.31840277       8.07542680       2.77111712
C       -4.50502873       9.20582911       2.70973584
C       -4.88435989      10.52042336       2.86547802
C       -3.88172996      11.49889593       2.76602394
C       -2.52550126      11.15647646       2.51321063
C       -1.44445641      12.19882706       2.40934844
C       -2.17426398       9.80327369       2.35879437
C       -3.17933003       8.86295091       2.46203876
H       -2.09771394      -0.76535058       1.57367030
H       -3.51489110       0.65753431       3.01898796
H       -3.10980725       3.07861705       3.16720338
H        0.16469364       2.69983547       0.37160141
H       -3.19382648       4.97132611       2.14567736
H       -6.31354382       8.06869299       2.94086242
H       -5.91698618      10.78954794       3.05899899
H       -0.47047739      11.74500152       2.19600243
H       -1.34988644      12.74588843       3.35269425
H       -1.66225214      12.89724927       1.59527617
H       -1.15132664       9.49067782       2.16564834
C       -4.29060714      12.86935876       2.93410449
C       -4.63304177      14.01712139       3.07487196
Br      -5.18672960      15.87295648       3.30248104
C        0.88200252      -0.88200252       0.88200252
C        1.41140338      -2.06361779       0.36512171
C        2.22369475      -2.86708832       1.16565306
C        2.49940880      -2.49247537       2.48336773
C        1.95381345      -1.31101406       3.00692360
C        1.15121165      -0.49881948       2.19434601
C        2.22180424      -0.85910019       4.40212504
O        2.17790334       0.34026903       4.66072215
N        2.47688000      -1.86446820       5.32054827
N        2.73747769      -1.54703045       6.62437162
C        2.93172042      -2.53657496       7.43463521
C        2.91239934      -4.03707200       7.12832171
O        2.70607179      -4.51657263       6.03370730
N        3.17419942      -4.66210922       8.32863806
C        3.35733967      -3.72189308       9.34136093
C        3.63984828      -3.96302393      10.66738906
C        3.78748262      -2.84914151      11.51002569
C        3.65113258      -1.52050631      11.02354946
C        3.81196376      -0.32142255      11.91924560
C        3.36157390      -1.31169514       9.66306300
C        3.22241654      -2.42404037       8.85786277
H        1.20442027      -2.36147397      -0.65986058
H        2.65005226      -3.78169706       0.75966405
H        3.16219843      -3.12099912       3.07243012
H        0.74085379       0.42700896       2.59289841
H        2.39630265      -2.84902075       5.06550655
H        3.22472679      -5.66491777       8.43345468
H        3.74578696      -4.97379898      11.04594716
H        3.65534356       0.61275951      11.36889729
H        4.82373215      -0.28907867      12.33565830
H        3.07731019      -0.34732382      12.73014357
H        3.24914759      -0.31556129       9.24294391
C        4.08606731      -3.11448999      12.89351309
C        4.33613198      -3.33671935      14.05218378
Br       4.74046540      -3.69604543      15.92565629
