133
Properties=species:S:1:pos:R:3 pbc="F F F"
C        0.00000000       0.00000000       0.00000000
C        0.88200252       0.88200252      -0.88200252
C        0.41498622       2.12840829      -1.29674837
C        1.22134093       2.93944530      -2.09564990
C        2.48964969       2.50063772      -2.48496450
C        2.95227884       1.24001243      -2.07945984
C        2.14532870       0.43512977      -1.26391867
C        4.29937699       0.72559648      -2.45805600
O        4.85861614      -0.08313925      -1.72287957
N        4.80696946       1.19715937      -3.65776765
N        6.03752395       0.78452111      -4.08683471
C        6.43415917       1.23662549      -5.23214593
C        5.70459416       2.18717874      -6.18602016
O        4.60926981       2.66575694      -5.98132497
N        6.55119288       2.35261971      -7.26113411
C        7.72191314       1.61769446      -7.08098609
C        8.79973228       1.53631970      -7.93420929
C        9.87913474       0.73007444      -7.53744065
Br      11.36167466       0.63220012      -8.72540596
C        9.86896082       0.02031356      -6.30591398
C       11.02348851      -0.84246235      -5.87160575
C        8.75072835       0.12627050      -5.45933320
C        7.70476296       0.92578212      -5.87377461
H       -0.56935854       2.47906607      -0.99632614
H        0.86499256       3.91855365      -2.40786715
H        3.10836656       3.16769245      -3.07956867
H        2.50898701      -0.53603764      -0.93379387
H        4.24861388       1.78760683      -4.27460924
H        6.33210031       2.93456302      -8.05643591
H        8.81508839       2.07517516      -8.87526956
H       10.82524200      -1.31914764      -4.90538697
H       11.92942049      -0.23875869      -5.75780733
H       11.19897441      -1.64217164      -6.59797481
H        8.69572219      -0.39546083      -4.50739143
C       -0.88200252      -0.88200252      -0.88200252
C       -1.19507810      -0.46886494      -2.17619985
C       -1.99373654      -1.27593424      -2.98676535
C       -2.48434894      -2.49059000      -2.50031297
C       -2.18103213      -2.89795622      -1.19276276
C       -1.36540230      -2.09162649      -0.38734835
C       -2.67012309      -4.18712453      -0.62578185
O       -2.01819969      -4.73731131       0.25715455
N       -3.86946817      -4.65270403      -1.13972428
N       -4.39588274      -5.82904944      -0.68394758
C       -5.53536471      -6.18600414      -1.18156174
C       -6.38665919      -5.46216908      -2.22896478
O       -6.08828819      -4.41169599      -2.75636753
N       -7.50015072      -6.25403931      -2.41075667
C       -7.43438362      -7.38613081      -1.60007925
C       -8.35507976      -8.40610301      -1.50907850
C       -8.07198328      -9.45530545      -0.61936109
Br      -9.35189839     -10.85830917      -0.50907317
C       -6.88500385      -9.47268011       0.16249560
C       -6.57233820     -10.59545137       1.11515766
C       -5.96704551      -8.41355561       0.04426907
C       -6.27018109      -7.39624472      -0.83789388
H       -0.81545099       0.47332237      -2.56390505
H       -2.22677692      -0.96265443      -4.00198202
H       -3.07625749      -3.11364486      -3.16572532
H       -1.11450695      -2.41370537       0.62146908
H       -4.41608449      -4.09687870      -1.79786675
H       -8.24579889      -6.02549648      -3.05180386
H       -9.26276395      -8.40016760      -2.10260156
H       -5.62484277     -10.42438351       1.63774494
H       -6.47951883     -11.54159181       0.57264151
H       -7.35286295     -10.67971448       1.87779985
H       -5.04511256      -8.38165205       0.61911181
C       -0.88200252       0.88200252       0.88200252
C       -1.90807546       0.30395459       1.62811284
C       -2.71007234       1.10575374       2.44061004
C       -2.49037858       2.48447984       2.50039348
C       -1.46733907       3.06683483       1.73757720
C       -0.65393031       2.25558817       0.93485866
C       -1.18329177       4.53002194       1.76971576
O       -0.04533274       4.92335662       1.52966709
N       -2.26748627       5.34633594       2.04807427
N       -2.10390767       6.70239827       2.10257383
C       -3.16497933       7.40590846       2.33204281
C       -4.60001188       6.92048558       2.55729559
O       -4.94521187       5.75794837       2.55319147
N       -5.34844730       8.06087086       2.75562853
C       -4.54186622       9.19548182       2.68324565
C       -4.92777200      10.50877618       2.83371310
C       -3.93129321      11.49231485       2.72304176
Br      -4.48044975      13.30091099       2.93791999
C       -2.57459097      11.15612980       2.46446758
C       -1.50008747      12.20396227       2.34858216
C       -2.21655141       9.80407703       2.31570360
C       -3.21566150       8.85869468       2.42996351
H       -2.08441248      -0.76823509       1.58985627
H       -3.50146313       0.65480944       3.03514079
H       -3.10930596       3.07894404       3.16737768
H        0.15145305       2.70278952       0.35540678
H       -3.20984135       4.96531605       2.13567254
H       -6.34255955       8.04948129       2.93105839
H       -5.96080076      10.77315949       3.03157286
H       -0.52476703      11.75444013       2.13227419
H       -1.40330006      12.75689799       3.28827107
H       -1.72644043      12.89650850       1.53182865
H       -1.19296226       9.49617124       2.11851930
C        0.88200252      -0.88200252       0.88200252
C        1.43594073      -2.04823109       0.35597107
C        2.24827247      -2.85153206       1.15663161
C        2.49953819      -2.49224302       2.48347070
C        1.92931524      -1.32649832       3.01593755
C        1.12671693      -0.51416035       2.20349986
C        2.17061943      -0.89116492       4.42124513
O        2.10553125       0.30355324       4.69637844
N        2.42710139      -1.90604443       5.32875067
N        2.66428683      -1.60393330       6.64065963
C        2.86127169      -2.60229008       7.43936883
C        2.86822572      -4.09828574       7.11128159
O        2.68465568      -4.56469548       6.00700055
N        3.12183736      -4.73692625       8.30618308
C        3.27668624      -3.80903699       9.33487045
C        3.54360046      -4.06538635      10.66127446
C        3.66286306      -2.96189816      11.52188860
Br       4.03607745      -3.33333447      13.34986881
C        3.51416478      -1.62840940      11.05261417
C        3.64461735      -0.44032150      11.96769306
C        3.24116808      -1.40397199       9.69119198
C        3.12982047      -2.50634718       8.86815204
H        1.24806736      -2.33405877      -0.67609246
H        2.69370406      -3.75390665       0.74380265
H        3.16288755      -3.11969933       3.07304079
H        0.69722494       0.39976984       2.60928815
H        2.36455523      -2.88783099       5.05844373
H        3.18546481      -5.74032665       8.39730778
H        3.65881113      -5.07994547      11.02677651
H        3.48232011       0.49943650      11.42859773
H        4.64972019      -0.39951867      12.39923026
H        2.89884574      -0.48859071      12.76734113
H        3.12028161      -0.40353843       9.28383275
