142
Properties=species:S:1:pos:R:3 pbc="F F F"
C        1.79293300       1.79293300      -1.79293300
C        2.92738026       2.39233963      -1.24537795
C        3.72317022       3.21613832      -2.04003895
C        3.38561846       3.42386202      -3.37723024
O        4.19505455       4.28362895      -4.07788075
C        2.26637798       2.79234650      -3.94847333
C        1.45301274       1.99755502      -3.12992078
C        1.93288321       3.05386172      -5.37904284
O        2.32008441       4.11811335      -5.87425333
N        1.21807446       2.15097579      -6.13657957
N        1.16306961       0.75886642      -5.82853096
C        0.39422931       0.10537845      -6.71147568
H       -0.13588264       0.56933848      -7.53877005
C        0.13901530      -1.33068845      -6.51266932
C        1.03573772      -2.15914376      -5.82423355
C        0.76665790      -3.51798539      -5.64313707
C       -0.41034248      -4.06086569      -6.15461118
O       -0.67714980      -5.39069967      -5.96727971
C       -1.30990180      -3.25080491      -6.85135882
Br      -2.92707300      -3.94970347      -7.55759036
C       -1.03291536      -1.89295748      -7.03405444
H        3.19179055       2.23278570      -0.20469511
H        4.59869674       3.70405282      -1.62320372
H        3.74855213       4.42664546      -4.94616211
H        0.55727983       1.54059059      -3.54330803
H        1.04573030       2.40975271      -7.09982697
H        1.95322167      -1.73226246      -5.42332902
H        1.48610474      -4.12122460      -5.10094974
H        0.03491709      -5.76606606      -5.42579051
H       -1.73559427      -1.25703247      -7.56476093
C       -1.79293300      -1.79293300      -1.79293300
C       -1.22933080      -2.88850897      -2.44725807
C       -2.02492815      -3.68335635      -3.27106299
C       -3.37851613      -3.38410286      -3.42409173
O       -4.08096451      -4.18828089      -4.28731886
C       -3.96421748      -2.30554548      -2.73743486
C       -3.14629066      -1.49140698      -1.94279090
C       -5.41274772      -2.01172435      -2.94131570
O       -5.93044623      -2.38065809      -4.00134677
N       -6.16241528      -1.35214897      -1.99106557
N       -5.80999807      -1.33189379      -0.60857514
C       -6.69501045      -0.61447485       0.09840186
H       -7.55402812      -0.09756693      -0.32063084
C       -6.45671810      -0.39929411       1.53501604
C       -5.71239557      -1.29882851       2.31039656
C       -5.49482026      -1.06789327       3.67090395
C       -6.02564248       0.07322070       4.26901878
O       -5.80273398       0.30303120       5.60027253
C       -6.77774543       0.97471715       3.51237617
Br      -7.51212647       2.54398378       4.28732880
C       -6.99662952       0.73579833       2.15264959
H       -0.17590233      -3.12304325      -2.33032577
H       -1.59654724      -4.52825749      -3.80114855
H       -4.96750840      -3.76662941      -4.38722189
H       -3.57291346      -0.62520625      -1.44305876
H       -7.13883029      -1.20379045      -2.21268924
H       -5.29653491      -2.18814545       1.84039213
H       -4.90983479      -1.78795021       4.23195512
H       -5.22629229      -0.40231514       5.93396589
H       -7.57069610       1.44054474       1.55801717
C       -1.79293300       1.79293300       1.79293300
C       -2.98029338       2.31021020       1.27459425
C       -3.77752519       3.13388719       2.06793511
C       -3.38791054       3.42335643       3.37544375
O       -4.20497951       4.27761221       4.07397254
C       -2.21301072       2.87450183       3.91968526
C       -1.40081126       2.07940960       3.10026768
C       -1.82570017       3.22207396       5.31801364
O       -2.24136501       4.29009121       5.78099488
N       -1.03203151       2.39262077       6.08097754
N       -0.92269061       0.99110475       5.83667163
C       -0.08155829       0.41923312       6.71029203
H        0.46338030       0.94815350       7.48745269
C        0.23486039      -1.01126610       6.56712266
C       -0.65120048      -1.91425676       5.96388379
C       -0.32394055      -3.26617913       5.83404816
C        0.90136676      -3.72684167       6.31161144
O        1.22462700      -5.05024090       6.17429814
C        1.79156233      -2.84165635       6.92387078
Br       3.47294006      -3.42752750       7.58128145
C        1.45653915      -1.49101997       7.05574073
H       -3.28532270       2.08695140       0.25699726
H       -4.69487162       3.55864266       1.67243900
H       -3.72560774       4.48442548       4.91132649
H       -0.46500305       1.68631494       3.48986046
H       -0.82742834       2.70668275       7.02119889
H       -1.60662777      -1.55158306       5.58924351
H       -1.03739990      -3.92885960       5.35728956
H        0.50726648      -5.48520017       5.68710819
H        2.15110732      -0.79709150       7.52033300
C        1.79293300      -1.79293300       1.79293300
C        1.29888244      -3.01402924       2.25218616
C        2.09134663      -3.81230224       3.07569862
C        3.37427704      -3.38954773       3.42288595
O        4.07170309      -4.21184822       4.27301295
C        3.89568224      -2.17894620       2.93256938
C        3.07570295      -1.36757692       2.13720866
C        5.26747142      -1.75746984       3.34084652
O        5.70866211      -2.19404435       4.40974464
N        6.02983778      -0.91070128       2.56509076
N        5.82874184      -0.76131679       1.16040835
C        6.69141890       0.12766917       0.64733371
H        7.43127880       0.67964429       1.22059138
C        6.58517108       0.48826221      -0.77591270
C        6.04325518      -0.38575393      -1.72818160
C        5.94733391      -0.01659634      -3.07212067
C        6.39746150       1.23909309      -3.47496540
O        6.29325865       1.60302326      -4.79080515
C        6.94883824       2.11815348      -2.54003265
Br       7.56705783       3.83969725      -3.04654669
C        7.04710193       1.74135368      -1.19756664
H        0.30040860      -3.34491816       1.98394459
H        1.71377301      -4.75641275       3.45576752
H        4.88467959      -3.71225607       4.52442405
H        3.44568873      -0.40631389       1.78917584
H        6.95146104      -0.68583110       2.91801784
H        5.68989457      -1.36506669      -1.41067304
H        5.51779633      -0.72227852      -3.77424498
H        5.84584859       0.88524741      -5.26595965
H        7.46409717       2.42668391      -0.46527908
C       -0.00445707       0.01189536      -1.78238275
H       -0.66409135       0.67374010      -2.43557963
H        0.65740317      -0.63156657      -2.45157240
C       -0.90989263      -0.90692880      -0.91072765
C        0.90977584       0.90977584      -0.90977584
C       -0.00465871       1.77757030       0.00794375
H       -0.66225468       2.44313916      -0.64384735
H        0.64322798       2.43503045       0.67728295
C       -1.78241447       0.00034974      -0.00472694
H       -2.45427497      -0.65498947       0.64260836
H       -2.43311707       0.67328779      -0.65473579
C       -0.91132561       0.90220522       0.91563759
C       -0.01476271      -0.02253852       1.78660255
H       -0.67934791      -0.69751639       2.42135241
H        0.63392994       0.61504881       2.47327442
C        0.01484550      -1.77751727      -0.01636693
H        0.67870853      -2.42144646      -0.68295456
H       -0.62264859      -2.45592969       0.64226336
C        1.78714474       0.01002794       0.00389507
H        2.44202412       0.67113390       0.66197326
H        2.45385902      -0.65136977      -0.64189061
C        0.91606151      -0.90478549       0.90901405
