129
Properties=species:S:1:pos:R:3 pbc="F F F"
C        0.00000000       0.00000000       0.00000000
C        0.88302898       0.88302898      -0.88302898
C        2.01747624       1.48243560      -0.33547392
C        2.81326619       2.30623430      -1.13013492
C        2.47571443       2.51395800      -2.46732621
O        3.28515053       3.37372493      -3.16797673
C        1.35647396       1.88244248      -3.03856931
C        0.54310872       1.08765099      -2.22001676
C        1.02297918       2.14395770      -4.46913882
O        1.41018039       3.20820933      -4.96434931
N        0.30817044       1.24107176      -5.22667555
N        0.25316558      -0.15103760      -4.91862693
C       -0.51567472      -0.80452558      -5.80157166
H       -1.04578666      -0.34056555      -6.62886602
C       -0.77088873      -2.24059247      -5.60276529
C        0.12583370      -3.06904779      -4.91432953
C       -0.14324613      -4.42788941      -4.73323305
C       -1.32024650      -4.97076972      -5.24470716
O       -1.58705382      -6.30060370      -5.05737569
C       -2.21980582      -4.16070894      -5.94145480
C       -1.94281938      -2.80286150      -6.12415042
H        2.28188652       1.32288167       0.70520892
H        3.68879272       2.79414879      -0.71329970
H        2.83864810       3.51674144      -4.03625809
H       -0.35262419       0.63068657      -2.63340401
H        0.13582627       1.49984869      -6.18992295
H        1.04331764      -2.64216648      -4.51342499
H        0.57620071      -5.03112863      -4.19104571
H       -0.87498693      -6.67597009      -4.51588649
H       -2.64549830      -2.16693650      -6.65485691
C       -3.44673251      -4.69095415      -6.47726345
C       -4.47428362      -5.13503452      -6.92600319
Br      -6.13574684      -5.85307492      -7.65157741
C       -0.88302898      -0.88302898      -0.88302898
C       -1.93328705      -0.30537921      -1.59671950
C       -2.75494776      -1.10928811      -2.38539954
C       -2.51268661      -2.48054248      -2.46376955
O       -3.39430562      -3.20699588      -3.22555069
C       -1.43234915      -3.06569205      -1.77944455
C       -0.63720816      -2.25365404      -0.95991427
C       -1.21810307      -4.53888882      -1.87908380
O       -2.19811010      -5.24600679      -2.13862214
N        0.02296209      -5.10830718      -1.69057266
N        1.23913338      -4.38518193      -1.87470637
C        2.30009281      -5.16370422      -1.61775996
H        2.24835353      -6.19899017      -1.29187717
C        3.64814250      -4.57424709      -1.66517951
C        3.94666256      -3.45855369      -2.45922430
C        5.23292344      -2.91385034      -2.48117061
C        6.23673708      -3.48723269      -1.70319533
O        7.49424289      -2.94576095      -1.71820010
C        5.95795634      -4.60519594      -0.91370043
C        4.67040580      -5.14913310      -0.89974224
H       -2.12431474       0.76153535      -1.53677990
H       -3.58725220      -0.67700249      -2.93198651
H       -3.17016489      -4.15476382      -3.06671892
H        0.17258076      -2.69776327      -0.38628387
H        0.07458732      -6.11470740      -1.78547783
H        3.16026659      -3.01078976      -3.06405298
H        5.41872019      -2.04806990      -3.10676808
H        7.47435070      -2.15684336      -2.28243681
H        4.44649391      -6.01106359      -0.27785243
C        6.97239019      -5.21696340      -0.09500357
C        7.82197853      -5.72931864       0.59065505
Br       9.19569104      -6.55775374       1.69930704
C       -0.88302898       0.88302898       0.88302898
C       -1.91338361       0.30059004       1.62141211
C       -2.73527046       1.10399673       2.41036823
C       -2.51293276       2.47979895       2.46426693
O       -3.39398157       3.20444856       3.22842205
C       -1.45217685       3.07064159       1.75466731
C       -0.65714522       2.25823306       0.93539818
C       -1.25909119       4.54826548       1.82871903
O       -2.24580239       5.24438581       2.09255082
N       -0.02990653       5.13342279       1.61258842
N        1.19986832       4.43168124       1.78894199
C        2.24474404       5.22212004       1.50399537
H        2.17219509       6.25138018       1.16332873
C        3.60224736       4.65391070       1.53962075
C        3.92983298       3.55518064       2.34576778
C        5.22448961       3.03038935       2.35619776
C        6.20750409       3.60687268       1.55432235
O        7.47325774       3.08477090       1.55820501
C        5.89968715       4.70824038       0.75238680
C        4.60387372       5.23236879       0.74997447
H       -2.08889344      -0.76988542       1.58055126
H       -3.55248042       0.66761826       2.97614253
H       -3.18684508       4.15294705       3.05185550
H        0.13696402       2.70567678       0.34275363
H        0.00769096       6.14182696       1.69146191
H        3.15963910       3.10491576       2.96929950
H        5.43299433       2.17722372       2.99188840
H        7.47401346       2.30439815       2.13454478
H        4.35737787       6.08116597       0.11863401
C        6.89211435       5.32263530      -0.09094417
C        7.72327213       5.83719105      -0.79723386
Br       9.06718397       6.66918417      -1.93924455
C        0.88302898      -0.88302898       0.88302898
C        2.22734817      -1.05541106       0.55262654
C        3.03103808      -1.87717179       1.34142555
C        2.48795116      -2.50930264       2.45974485
O        3.33419222      -3.33620759       3.15645238
C        1.14410095      -2.31005255       2.82333224
C        0.33691452      -1.51269556       2.00116638
C        0.59975780      -3.01733534       4.01898256
O        1.14926962      -4.06933034       4.36413906
N       -0.47830677      -2.52877230       4.72545222
N       -0.84544287      -1.14999987       4.71619791
C       -1.93254758      -0.94118176       5.47273718
H       -2.47823557      -1.71504461       6.00570477
C       -2.52269100       0.40655446       5.52052956
C       -1.76212909       1.56207040       5.29531493
C       -2.34791048       2.82956854       5.33957652
C       -3.70905354       2.94977091       5.61251539
O       -4.28344818       4.19223890       5.64540524
C       -4.47906871       1.80863965       5.84864839
C       -3.88647944       0.54331139       5.80826036
H        2.65218980      -0.56506616      -0.31769667
H        4.07424264      -2.03553329       1.08646528
H        2.77048820      -3.80244479       3.81871464
H       -0.71605336      -1.38670960       2.24081014
H       -0.77322769      -3.07153679       5.52728882
H       -0.69962486       1.46550252       5.07970354
H       -1.72305178       3.69622764       5.15539722
H       -3.60333456       4.84333947       5.41160349
H       -4.48423387      -0.34732426       5.97933173
C       -5.88875345       1.89975767       6.12808790
C       -7.06936442       1.97606901       6.36211849
Br      -8.97831250       2.09945800       6.74052616
