121
Properties=species:S:1:pos:R:3 pbc="F F F"
C        0.00000000       0.00000000       0.00000000
C        0.88302898       0.88302898      -0.88302898
C        2.01747624       1.48243560      -0.33547392
C        2.81326619       2.30623430      -1.13013492
C        2.47571443       2.51395800      -2.46732621
O        3.28515053       3.37372493      -3.16797673
C        1.35647396       1.88244248      -3.03856931
C        0.54310872       1.08765099      -2.22001676
C        1.02297918       2.14395770      -4.46913882
O        1.41018039       3.20820933      -4.96434931
N        0.30817044       1.24107176      -5.22667555
N        0.25316558      -0.15103760      -4.91862693
C       -0.51567472      -0.80452558      -5.80157166
H       -1.04578666      -0.34056555      -6.62886602
C       -0.77088873      -2.24059247      -5.60276529
C        0.12583370      -3.06904779      -4.91432953
C       -0.14324613      -4.42788941      -4.73323305
C       -1.32024650      -4.97076972      -5.24470716
O       -1.58705382      -6.30060370      -5.05737569
C       -2.21980582      -4.16070894      -5.94145480
Br      -3.83697702      -4.85960749      -6.64768633
C       -1.94281938      -2.80286150      -6.12415042
H        2.28188652       1.32288167       0.70520892
H        3.68879272       2.79414879      -0.71329970
H        2.83864810       3.51674144      -4.03625809
H       -0.35262419       0.63068657      -2.63340401
H        0.13582627       1.49984869      -6.18992295
H        1.04331764      -2.64216648      -4.51342499
H        0.57620071      -5.03112863      -4.19104571
H       -0.87498693      -6.67597009      -4.51588649
H       -2.64549830      -2.16693650      -6.65485691
C       -0.88302898      -0.88302898      -0.88302898
C       -1.99457673      -0.32553345      -1.51527559
C       -2.81542461      -1.13107188      -2.30313892
C       -2.51176070      -2.48297357      -2.46226437
O       -3.39478689      -3.21556887      -3.21649643
C       -1.37133007      -3.04501821      -1.86113746
C       -0.57576930      -2.23419442      -1.04081274
C       -1.09178465      -4.49900664      -2.04528441
O       -2.04850901      -5.24144193      -2.29278808
N        0.18317022      -5.01338906      -1.94569890
N        1.35229322      -4.22171194      -2.15133620
C        2.46109674      -4.95708174      -1.98538637
H        2.47574576      -6.00813384      -1.71012573
C        3.77511452      -4.29865833      -2.06774029
C        3.97911975      -3.13240674      -2.81782845
C        5.23493906      -2.52297567      -2.87406089
C        6.30319881      -3.08165309      -2.17523666
O        7.53083931      -2.47723272      -2.22332476
C        6.11876405      -4.24895266      -1.43075143
Br       7.54591145      -5.03767179      -0.45934148
C        4.86121772      -4.85730037      -1.38238689
H       -2.23342550       0.72624541      -1.39237918
H       -3.69411384      -0.71560955      -2.78651782
H       -3.11758106      -4.15734034      -3.11672623
H        0.28239454      -2.66389006      -0.52997087
H        0.27827869      -6.01016377      -2.09371283
H        3.14253953      -2.69638264      -3.36073304
H        5.34702794      -1.61982628      -3.46331946
H        7.44453808      -1.66410437      -2.74536318
H        4.71073401      -5.75835695      -0.79479917
C       -0.88302898       0.88302898       0.88302898
C       -1.86771780       0.29240790       1.67526007
C       -2.69006307       1.09470541       2.46486693
C       -2.51341036       2.47816643       2.46542185
O       -3.39297000       3.19898237       3.23489982
C       -1.49768827       3.07917829       1.70061918
C       -0.70286447       2.26595771       0.88195429
C       -1.35308023       4.56406595       1.71892952
O       -2.35380414       5.23570711       1.99322777
N       -0.15255220       5.18192442       1.44144113
N        1.10575721       4.52784161       1.59867051
C        2.11285739       5.34226996       1.25195880
H        1.99376130       6.35625703       0.88001809
C        3.48949700       4.82097532       1.25980578
C        3.88116870       3.76203616       2.09024798
C        5.19270706       3.28115996       2.07364460
C        6.12820734       3.86208223       1.21981605
O        7.41056612       3.38270871       1.19757558
C        5.75633100       4.92445653       0.39281450
Br       6.99824706       5.73860015      -0.78925127
C        4.44392595       5.40490740       0.41748808
H       -2.00764277      -0.78407317       1.67598968
H       -3.47259073       0.65112651       3.07252396
H       -3.22448255       4.14721247       3.01995261
H        0.05531743       2.71890049       0.24788333
H       -0.14699062       6.19313348       1.48547382
H        3.14799661       3.30812908       2.75444368
H        5.45134941       2.45770359       2.72976361
H        7.45722860       2.62303176       1.79912631
H        4.14763005       6.22288899      -0.23283683
C        0.88302898      -0.88302898       0.88302898
C        2.26867755      -0.83895677       0.72775145
C        3.07677387      -1.65828343       1.51457811
C        2.49447215      -2.50492231       2.45760419
O        3.35649628      -3.31097503       3.15938088
C        1.10136441      -2.52725316       2.64886817
C        0.29742704      -1.72759692       1.82575250
C        0.51890276      -3.45881831       3.65835463
O        1.16496241      -4.47285885       3.94491775
N       -0.69666122      -3.21269120       4.25988777
N       -1.25154187      -1.90274141       4.36955537
C       -2.44253011      -1.93957491       4.98432657
H       -2.93478118      -2.84275383       5.33454117
C       -3.21909770      -0.69581943       5.11456237
C       -2.60804263       0.56517949       5.14433756
C       -3.36851418       1.73117252       5.26178421
C       -4.75617020       1.64191557       5.35177670
O       -5.50050159       2.78634866       5.45656843
C       -5.37990125       0.39232525       5.33316654
Br      -7.26738856       0.22788838       5.44637876
C       -4.61353100      -0.77124246       5.22075808
H        2.72422632      -0.18137285      -0.00603990
H        4.15535872      -1.64843807       1.39244442
H        2.78692511      -3.93258968       3.67213284
H       -0.78425956      -1.76827712       1.92744883
H       -1.00869726      -3.89595414       4.93834103
H       -1.52413763       0.63252626       5.07124005
H       -2.85487070       2.68585158       5.27684008
H       -4.89588627       3.54320306       5.40401880
H       -5.09553213      -1.74425348       5.19370076
