138
Properties=species:S:1:pos:R:3 pbc="F F F"
N        0.92711136       5.72980052      -0.12537889
C        1.68890108       5.81947453      -0.99817931
C        2.62731914       5.99410879      -2.06451145
C        3.10298524       4.96137719      -2.79470421
C        2.75103684       3.59112080      -2.61152711
C        3.20495891       2.48556672      -3.32582885
C        2.58290498       1.32975811      -2.79202477
C        1.77675537       1.77675537      -1.77675537
O        1.87196610       3.12339682      -1.66292748
C        3.09935853       7.31664334      -2.40113201
S        2.56484338       8.71940700      -1.51630896
C        3.51547600       9.73279237      -2.50647963
C        4.17952523       8.98488007      -3.45369705
N        3.95343121       7.61760917      -3.37011002
C        5.07625310       9.54813449      -4.45819422
C        6.12246627       8.76623583      -4.96982834
C        7.00173415       9.28508158      -5.92597464
C        6.83367961      10.58986044      -6.38277480
Br       8.02015342      11.29535945      -7.67356368
C        5.79389319      11.37806326      -5.89624626
C        4.91741918      10.85781307      -4.93822295
H        3.81400009       5.15876309      -3.59574938
H        3.91070014       2.51474650      -4.14548720
H        2.70916951       0.30458783      -3.11030822
H        3.53951246      10.79948694      -2.33697379
H        6.26378776       7.74547694      -4.61945473
H        7.80951784       8.66407280      -6.30399876
H        5.65289282      12.39417727      -6.25592750
H        4.10400755      11.48881142      -4.58847341
N        1.21533935      -3.64683787      -4.35079225
C        0.15467194      -4.02838521      -4.63284166
C       -1.12479495      -4.53414927      -5.02699516
C       -2.27552356      -4.15476929      -4.42877380
C       -2.37686261      -3.22654205      -3.35028009
C       -3.52649751      -2.79732895      -2.69252802
C       -3.14186785      -1.87328027      -1.68953975
C       -1.77675537      -1.77675537      -1.77675537
O       -1.31360481      -2.58068318      -2.76400240
C       -1.22267119      -5.48576656      -6.10869613
S        0.19754503      -6.05673429      -6.94137008
C       -0.76503910      -7.02726075      -7.96244815
C       -2.09686442      -6.87688181      -7.64435612
N       -2.34151018      -6.01955897      -6.58008126
C       -3.18396525      -7.56847069      -8.33014587
C       -4.37498970      -7.84208440      -7.64145633
C       -5.42838710      -8.51202112      -8.27238216
C       -5.29874219      -8.90568893      -9.60188373
Br      -6.71896356      -9.81227646     -10.45783653
C       -4.12910133      -8.63259683     -10.30650454
C       -3.07608033      -7.96475663      -9.67261824
H       -3.21909007      -4.57357877      -4.77584373
H       -4.53482821      -3.11963331      -2.91647232
H       -3.78162494      -1.34755690      -0.99488371
H       -0.30838798      -7.64784151      -8.71974370
H       -4.48706112      -7.53978797      -6.60187036
H       -6.33980622      -8.71970389      -7.71807928
H       -4.02608163      -8.92985080     -11.34706516
H       -2.18122608      -7.74887101     -10.25119529
N       -5.51190601      -0.48681982       1.75720458
C       -5.63189399       0.47167914       2.40298179
C       -5.84124286       1.63536247       3.20933406
C       -4.87735743       2.55777575       3.42393346
C       -3.55311687       2.50442693       2.89614096
C       -2.51832263       3.41751406       3.08051780
C       -1.38660143       2.95176486       2.36632158
C       -1.77675537       1.77675537       1.77675537
O       -3.06660036       1.50341029       2.08827975
C       -7.12618128       1.86343821       3.82751440
S       -8.43698863       0.73221283       3.63135787
C       -9.45507893       1.71337600       4.58629306
C       -8.77839323       2.83961915       5.00008996
N       -7.45564964       2.90246561       4.58303515
C       -9.36464430       3.88557368       5.83236382
C       -8.53888443       4.64716873       6.67247728
C       -9.07660571       5.64892108       7.48726359
C      -10.44604054       5.90042328       7.45985103
Br     -11.17698861       7.25203762       8.56005031
C      -11.28092752       5.16357325       6.62370195
C      -10.74118115       4.16058734       5.81168670
H       -5.09869381       3.42420673       4.04561203
H       -2.57834487       4.32339400       3.66919496
H       -0.41364149       3.41682561       2.29359845
H      -10.47152633       1.41135547       4.79309139
H       -7.46731087       4.45875064       6.70265793
H       -8.41951200       6.22254742       8.13552997
H      -12.34931328       5.36176751       6.59191681
H      -11.41306876       3.61250869       5.15571493
N        3.29658252       1.15225658       4.63796483
C        3.72592236       0.10019685       4.88082942
C        4.28781341      -1.16916129       5.22896468
C        4.02124543      -2.29957188       4.53824934
C        3.16602651      -2.38776177       3.39989647
C        2.85059594      -3.51690386       2.64885469
C        1.96459569      -3.12542148       1.61467070
C        1.77675537      -1.77675537       1.77675537
O        2.48928140      -1.33006674       2.83894226
C        5.18416104      -1.27699187       6.35598097
S        5.58612117       0.11278522       7.32722339
C        6.60359709      -0.84134307       8.30980784
C        6.60509002      -2.14581550       7.86719682
N        5.78154650      -2.38437744       6.77522647
C        7.37467547      -3.21886875       8.48903759
C        6.91646558      -4.54169834       8.40036652
C        7.62990453      -5.58726076       8.99562508
C        8.81321004      -5.31539811       9.67770670
Br       9.77962502      -6.72484425      10.48460728
C        9.29117306      -4.01048842       9.76654123
C        8.57460262      -2.96624398       9.17260860
H        4.48193116      -3.23559626       4.85098514
H        3.22324671      -4.51616691       2.83152021
H        1.52264465      -3.75009075       0.85133016
H        7.12806145      -0.40200300       9.14590874
H        5.99249856      -4.76573578       7.87048510
H        7.25330648      -6.60391183       8.92037109
H       10.21886395      -3.79392383      10.29020981
H        8.97947247      -1.95958852       9.24223138
C       -0.00445707       0.01189536      -1.78238275
H       -0.66409135       0.67374010      -2.43557963
H        0.65740317      -0.63156657      -2.45157240
C       -0.90989263      -0.90692880      -0.91072765
C        0.90977584       0.90977584      -0.90977584
C       -0.00465871       1.77757030       0.00794375
H       -0.66225468       2.44313916      -0.64384735
H        0.64322798       2.43503045       0.67728295
C       -1.78241447       0.00034974      -0.00472694
H       -2.45427497      -0.65498947       0.64260836
H       -2.43311707       0.67328779      -0.65473579
C       -0.91132561       0.90220522       0.91563759
C       -0.01476271      -0.02253852       1.78660255
H       -0.67934791      -0.69751639       2.42135241
H        0.63392994       0.61504881       2.47327442
C        0.01484550      -1.77751727      -0.01636693
H        0.67870853      -2.42144646      -0.68295456
H       -0.62264859      -2.45592969       0.64226336
C        1.78714474       0.01002794       0.00389507
H        2.44202412       0.67113390       0.66197326
H        2.45385902      -0.65136977      -0.64189061
C        0.91606151      -0.90478549       0.90901405
