181
Properties=species:S:1:pos:R:3 pbc="F F F"
C        0.00000000       0.00000000       0.00000000
C        0.88222042       0.88222042      -0.88222042
C        0.57438491       2.23709051      -1.02548840
C        1.37583577       3.04239711      -1.83168918
C        2.47023071       2.47376816      -2.48032128
O        3.25197500       3.30964176      -3.28785617
C        4.35846517       2.84148590      -3.99489367
O        4.98983515       3.62562762      -4.69706517
C        4.71303301       1.38825319      -3.85497497
C        3.94426628       0.61467509      -3.06138708
C        2.78812802       1.13013878      -2.34679308
C        1.98462919       0.32431336      -1.53700443
C        5.84781305       0.83504311      -4.56347637
C        6.74606655       1.50346652      -5.36978000
S        7.91337598       0.41984641      -5.99747366
C        7.15677079      -0.88134208      -5.15731490
N        6.09908127      -0.53059237      -4.44850222
C        7.66046350      -2.23833629      -5.21572166
S        8.43739747      -2.87956021      -6.61385523
C        8.67065123      -4.36561510      -5.79660028
C        8.14688429      -4.30631786      -4.51700370
N        7.55539998      -3.09316560      -4.21541795
C        8.18877885      -5.37455075      -3.53756951
C        8.75146593      -6.57165413      -3.81024080
C        8.81993425      -7.65507468      -2.84416423
C        9.41323498      -8.88596146      -3.13806211
C        9.44836781      -9.88709962      -2.16316726
C        8.89770632      -9.67240180      -0.89860244
C        8.30632906      -8.44434064      -0.60548495
C        8.27814630      -7.45499511      -1.58550491
O        7.68046620      -6.22886058      -1.26433996
C        7.60301948      -5.15836296      -2.16250727
O        7.07328333      -4.11956177      -1.78565429
H       -0.28278394       2.67000101      -0.51611819
H        1.15075245       4.09780598      -1.95470362
H        4.17019283      -0.44181416      -2.93173930
H        2.21237778      -0.73219946      -1.41547124
H        6.79927055       2.54932613      -5.63485683
H        9.17759579      -5.17347201      -6.30187762
H        9.19162748      -6.78909694      -4.77717527
H        9.84771497      -9.07019983      -4.11733753
H        8.92507721     -10.45088663      -0.14028773
H        7.87395872      -8.26040691       0.37408361
C       10.06046768     -11.15450231      -2.46750945
C       10.57310132     -12.21595207      -2.72239603
Br      11.40198657     -13.93222654      -3.13452607
C       -0.88222042      -0.88222042      -0.88222042
C       -0.65978284      -0.91644261      -2.26073837
C       -1.46492574      -1.71792897      -3.06706735
C       -2.47902597      -2.46909049      -2.47620369
O       -3.27402624      -3.25969864      -3.31574805
C       -4.32582836      -4.03656807      -2.83244832
O       -4.99273543      -4.69336176      -3.62643075
C       -4.58375589      -4.02005071      -1.35245457
C       -3.79255841      -3.25510494      -0.57266510
C       -2.71098040      -2.44530394      -1.10877554
C       -1.90202403      -1.64248410      -0.30143886
C       -5.66172914      -4.80108947      -0.78351391
C       -6.52025958      -5.65811603      -1.44093747
S       -7.63900983      -6.34781558      -0.34387065
C       -6.91499334      -5.46604386       0.94829358
N       -5.89828317      -4.70490407       0.58619612
C       -7.37927842      -5.57477075       2.31620031
S       -9.03234281      -5.85416135       2.71481167
C       -8.62632941      -5.85319542       4.37788842
C       -7.27026938      -5.63636533       4.54906458
N       -6.58307459      -5.45699361       3.36241587
C       -6.57579952      -5.59720498       5.82120690
C       -7.22491203      -5.75951846       6.99437789
C       -6.55309190      -5.73872639       8.28279449
C       -7.23713690      -5.91675167       9.48855294
C       -6.53145689      -5.88781093      10.69483236
C       -5.15076018      -5.68312949      10.70998270
C       -4.46853188      -5.50602094       9.50707944
C       -5.18327471      -5.53738900       8.31200761
O       -4.47333550      -5.35956924       7.11695916
C       -5.08139177      -5.38240836       5.85663634
O       -4.37499204      -5.23113953       4.86675573
H        0.13321012      -0.32512533      -2.71142005
H       -1.30626179      -1.75613161      -4.14086865
H       -3.94540610      -3.21877257       0.50406070
H       -2.06300740      -1.60620433       0.77356217
H       -6.57025977      -5.92728385      -2.48590990
H       -9.40067871      -6.01701997       5.11169728
H       -8.29653520      -5.92013091       7.03696030
H       -8.31212488      -6.07815364       9.49542584
H       -4.60181375      -5.66072228      11.64805773
H       -3.39388078      -5.34658951       9.50100209
C       -7.23773565      -6.07189479      11.93615562
C       -7.82924412      -6.22606502      12.97576385
Br      -8.78566329      -6.47534524      14.65672243
C       -0.88222042       0.88222042       0.88222042
C       -0.41477149       1.28778608       2.13440626
C       -1.21881089       2.08973302       2.94137815
C       -2.47718499       2.46889308       2.47824206
O       -3.26260390       3.27038937       3.31647966
C       -4.54242899       3.69258023       2.95983552
O       -5.18258153       4.38031908       3.74962733
C       -5.06732934       3.27274885       1.61618298
C       -4.28023965       2.50927164       0.83081716
C       -2.95406982       2.07409578       1.23689428
C       -2.14627415       1.27136827       0.42830457
C       -6.38946031       3.67337067       1.18350155
C       -7.28613533       4.48226827       1.85090948
S       -8.72630291       4.66156569       0.94282746
C       -8.07325621       3.65122605      -0.29173865
N       -6.85380726       3.20823766      -0.04505379
C       -8.80312237       3.33795499      -1.50322849
S      -10.51976861       3.19183032      -1.53990643
C      -10.45152162       2.87004086      -3.21992608
C       -9.14164880       2.88227640      -3.66635507
N       -8.21739305       3.12754425      -2.66728497
C       -8.71484845       2.67306305      -5.03611389
C       -9.59618901       2.42208122      -6.02821764
C       -9.19846481       2.22211324      -7.41155425
C      -10.12305877       1.97158671      -8.42930985
C       -9.67542774       1.79003265      -9.74102494
C       -8.31514434       1.85594457     -10.04718195
C       -7.39304588       2.10631146      -9.03188396
C       -7.85203041       2.28575434      -7.72912865
O       -6.90489060       2.53886734      -6.72781236
C       -7.24779495       2.74625872      -5.38688988
O       -6.34967028       2.97479000      -4.58508443
H        0.56800449       0.98482995       2.48650980
H       -0.87135749       2.41384200       3.91806256
H       -4.62316543       2.18735541      -0.15040287
H       -2.49662572       0.94835780      -0.54933396
H       -7.19816293       4.97934465       2.80594594
H      -11.36830012       2.70182542      -3.76412414
H      -10.66279230       2.35956461      -5.84265110
H      -11.18621673       1.91773619      -8.20910024
H       -7.96690400       1.71488341     -11.06730911
H       -6.33083318       2.16178233      -9.25314732
C      -10.62944502       1.53249138     -10.78846158
C      -11.42843450       1.31680056     -11.66568977
Br     -12.72033290       0.96804676     -13.08409356
C        0.88222042      -0.88222042       0.88222042
C        0.47126469      -2.18288092       1.18281821
C        1.27283557      -2.98773467       1.98935183
C        2.47089670      -2.47284632       2.48057712
O        3.25036073      -3.30597426       3.29313793
C        4.45720146      -2.88670504       3.85093825
O        5.08194293      -3.66327319       4.56731182
C        4.92349865      -1.49276735       3.53999516
C        4.15275007      -0.72142321       2.74615517
C        2.89177888      -1.18344479       2.18983621
C        2.08787565      -0.37819504       1.37987630
C        6.16603941      -0.99179260       4.08850053
C        7.07567709      -1.67032330       4.87331269
S        8.38948021      -0.65381275       5.28740310
C        7.67287465       0.63529078       4.39515975
N        6.52461099       0.32752455       3.81990468
C        8.29773884       1.93687881       4.27698884
S        9.26017049       2.62071949       5.53224149
C        9.54342171       3.99913195       4.55734665
C        8.89486399       3.87811169       3.34081784
N        8.17209158       2.70615644       3.21171718
C        8.93577818       4.84654253       2.26256195
C        9.62578087       6.00282600       2.36709773
C        9.69567596       6.98491634       1.29826418
C       10.42107008       8.17359773       1.41786327
C       10.44979483       9.07657010       0.35121072
C        9.76230640       8.80542743      -0.83297200
C        9.03914438       7.61942967      -0.95224133
C        9.01884823       6.72792681       0.11773468
O        8.28688834       5.54197285      -0.02896991
C        8.20264891       4.56756615       0.97208102
O        7.54919273       3.55582001       0.74600313
H       -0.46612845      -2.57392575       0.79553796
H        0.96840377      -4.00133427       2.23352400
H        4.45747003       0.29257977       2.49522771
H        2.39519083       0.63637138       1.13683011
H        7.06174715      -2.68889277       5.23281360
H       10.16633742       4.79548245       4.93514643
H       10.17510625       6.26111588       3.26571544
H       10.96302679       8.40061100       2.33243688
H        9.78467097       9.50755266      -1.66264000
H        8.49927758       7.39248795      -1.86732143
C       11.19806377      10.30055154       0.47596259
C       11.82473901      11.32563600       0.58044228
Br      12.83801987      12.98311086       0.74937709
