194
Properties=species:S:1:pos:R:3 pbc="F F F"
C        1.79212445       1.79212445      -1.79212445
C        1.48428893       3.14699453      -1.93539243
C        2.28573979       3.95230114      -2.74159320
C        3.38013473       3.38367218      -3.39022530
O        4.16187902       4.21954578      -4.19776020
C        5.26836919       3.75138993      -4.90479770
O        5.89973917       4.53553165      -5.60696919
C        5.62293703       2.29815721      -4.76487899
C        4.85417030       1.52457912      -3.97129110
C        3.69803204       2.04004280      -3.25669710
C        2.89453321       1.23421739      -2.44690845
C        6.75771707       1.74494713      -5.47338040
C        7.65597058       2.41337055      -6.27968403
S        8.82328001       1.32975044      -6.90737769
C        8.06667481       0.02856195      -6.06721893
N        7.00898529       0.37931165      -5.35840625
C        8.57036753      -1.32843227      -6.12562568
S        9.34730150      -1.96965619      -7.52375926
C        9.58055525      -3.45571108      -6.70650430
C        9.05678831      -3.39641383      -5.42690773
N        8.46530401      -2.18326157      -5.12532197
C        9.09868287      -4.46464672      -4.44747353
C        9.66136996      -5.66175011      -4.72014482
C        9.72983827      -6.74517065      -3.75406825
C       10.32313901      -7.97605744      -4.04796613
C       10.35827183      -8.97719560      -3.07307129
Br      11.16208169     -10.64154943      -3.47273360
C        9.80761035      -8.76249777      -1.80850646
C        9.21623308      -7.53443661      -1.51538898
C        9.18805033      -6.54509108      -2.49540894
O        8.59037022      -5.31895655      -2.17424398
C        8.51292350      -4.24845893      -3.07241129
O        7.98318735      -3.20965775      -2.69555832
H        0.62712008       3.57990503      -1.42602222
H        2.06065647       5.00771000      -2.86460764
H        5.08009685       0.46808986      -3.84164332
H        3.12228180       0.17770456      -2.32537527
H        7.70917457       3.45923016      -6.54476086
H       10.08749982      -4.26356799      -7.21178165
H       10.10153150      -5.87919292      -5.68707929
H       10.75761900      -8.16029580      -5.02724155
H        9.83498124      -9.54098261      -1.05019175
H        8.78386275      -7.35050289      -0.53582041
C       -1.79212445      -1.79212445      -1.79212445
C       -2.42832109      -2.90365284      -1.23470196
C       -3.23072677      -3.71083295      -2.03807441
C       -3.37910022      -3.38916424      -3.38576775
O       -4.18787659      -4.22442498      -4.16688344
C       -4.39108083      -4.00499403      -5.52848196
O       -5.09940742      -4.78609719      -6.15673540
C       -3.72057512      -2.81369361      -6.15170450
C       -2.95691357      -2.02534193      -5.36778502
C       -2.75384864      -2.28828155      -3.95264176
C       -1.95091465      -1.47907223      -3.14567218
C       -3.88640794      -2.52838009      -7.56125657
C       -4.66403413      -3.21096056      -8.47403046
S       -4.52964905      -2.50355215     -10.02720694
C       -3.44245255      -1.32431757      -9.39568557
N       -3.19550914      -1.44705853      -8.10413553
C       -2.86986601      -0.27882274     -10.21887219
S       -2.50636758      -0.50725511     -11.88778188
C       -1.95809289       1.11158596     -11.98484154
C       -2.06997931       1.73921534     -10.75651824
N       -2.56966747       0.92162407      -9.75932101
C       -1.72157475       3.11896556     -10.47890049
C       -1.22264547       3.93515665     -11.43227585
C       -0.87773237       5.32522393     -11.18622744
C       -0.37015992       6.16045277     -12.18534055
C       -0.05983862       7.48966771     -11.88397662
Br       0.62617271       8.61806233     -13.23750089
C       -0.25084196       7.99353313     -10.59631021
C       -0.75759303       7.16033918      -9.59993160
C       -1.06313644       5.83802810      -9.91325984
O       -1.57371169       5.02249470      -8.89444067
C       -1.92668958       3.68285608      -9.09304236
O       -2.37839095       3.05308328      -8.14378025
H       -2.30435498      -3.14630278      -0.18238957
H       -3.73243639      -4.57929322      -1.62124452
H       -2.45727275      -1.15150534      -5.78105195
H       -1.44978404      -0.60995342      -3.56562418
H       -5.29997995      -4.07373508      -8.33945055
H       -1.60021053       1.49333102     -12.92883397
H       -1.05442834       3.59221469     -12.44720424
H       -0.21584919       5.78507918     -13.19379474
H       -0.00964989       9.02730338     -10.36184387
H       -0.91322513       7.53681444      -8.59276958
C       -1.79212445       1.79212445       1.79212445
C       -1.31724913       3.03644517       2.21298159
C       -2.11895753       3.84094835       3.01972825
C       -3.38136918       3.38208834       3.39057469
O       -4.15960906       4.21272280       4.20685315
C       -5.42912576       3.84516128       4.65026978
O       -6.05025883       4.61481001       5.37717118
C       -5.96461047       2.51271838       4.20864439
C       -5.19223260       1.74293351       3.41487441
C       -3.86607611       2.14902475       2.97967110
C       -3.06182575       1.34418981       2.16964349
C       -7.27448731       2.06705889       4.63449841
C       -8.19067709       2.75513445       5.40321361
S       -9.59649656       1.81067514       5.65323644
C       -8.90577919       0.53621290       4.72046361
N       -7.70080606       0.79822877       4.24766836
C       -9.60676683      -0.70586152       4.46665563
S      -10.70132655      -1.40137688       5.60145489
C      -11.00561391      -2.68685403       4.51258859
C      -10.26412466      -2.53132113       3.35447868
N       -9.45656859      -1.40865711       3.35945292
C      -10.29215641      -3.41937781       2.20873108
C      -11.06427100      -4.52716025       2.18265393
C      -11.12274358      -5.42734941       1.04334169
C      -11.93334893      -6.56582771       1.02752648
C      -11.94567793      -7.39040978      -0.10112063
Br     -13.04367099      -8.92987344      -0.12053170
C      -11.15766890      -7.09048424      -1.21356562
C      -10.34948944      -5.95453728      -1.19776672
C      -10.34656109      -5.14098320      -0.06720971
O       -9.52764632      -4.00386675      -0.07812192
C       -9.45051707      -3.10779213       0.99415092
O       -8.71572474      -2.13300518       0.88636836
H       -0.33009091       3.38390758       1.91904884
H       -1.76535296       4.81111820       3.35650296
H       -5.54566272       0.77283839       3.07132892
H       -3.41844615       0.37319045       1.83372503
H       -8.13415475       3.74347895       5.83553190
H      -11.70646668      -3.45973404       4.78898084
H      -11.69328193      -4.80503765       3.02117360
H      -12.55407280      -6.81418980       1.88468174
H      -11.16726497      -7.73163515      -2.09143944
H       -9.73081346      -5.70606116      -2.05557203
C        1.79212445      -1.79212445       1.79212445
C        2.13577886      -3.07406848       1.35682855
C        2.93762487      -3.88095990       2.16104936
C        3.37877050      -3.38784089       3.38742082
O        4.17837910      -4.22659909       4.17420681
C        4.65952184      -3.84065246       5.42438252
O        5.34191009      -4.63199384       6.06833608
C        4.30695809      -2.46480704       5.91420811
C        3.54338933      -1.68030417       5.12634702
C        3.04583315      -2.11678191       3.83215689
C        2.24312713      -1.30837894       3.02415299
C        4.77079736      -2.00063614       7.20461110
C        5.58791205      -2.66512512       8.09598798
S        5.85184157      -1.71388865       9.49467792
C        4.86251860      -0.46698505       8.83295204
N        4.36670396      -0.74021900       7.63978023
C        4.61921595       0.78020893       9.52855393
S        4.53747669       0.88286701      11.24679489
C        4.27298287       2.57008666      11.12845227
C        4.25298624       2.96919198       9.80348795
N        4.42875905       1.92976345       8.90836880
C        4.07681888       4.32975545       9.33444625
C        3.89352083       5.36091923      10.18716307
C        3.72813213       6.73573179       9.74633554
C        3.54778027       7.79402624      10.64129367
C        3.39642157       9.09487153      10.15259748
Br       3.15317699      10.52525412      11.36534298
C        3.42322681       9.35013828       8.78053051
C        3.60359753       8.29439231       7.88798023
C        3.75358047       7.00297381       8.38776152
O        3.93627038       5.96020572       7.46959299
C        4.10856329       4.62554273       7.85385530
O        4.27555087       3.78465987       6.97819691
H        1.78476089      -3.44935030       0.39893614
H        3.21406238      -4.88053395       1.83837779
H        3.26913614      -0.67644075       5.44425315
H        1.96792662      -0.30778981       3.34964519
H        6.04736543      -3.64024584       8.02555432
H        4.15781148       3.15214546      12.03004746
H        3.86360795       5.21558226      11.26139220
H        3.52517157       7.61365182      11.71304500
H        3.30564432      10.36180294       8.40034899
H        3.62789636       8.47579314       6.81707705
C       -0.00445707       0.01189536      -1.78238275
H       -0.66409135       0.67374010      -2.43557963
H        0.65740317      -0.63156657      -2.45157240
C       -0.90989263      -0.90692880      -0.91072765
C        0.90977584       0.90977584      -0.90977584
C       -0.00465871       1.77757030       0.00794375
H       -0.66225468       2.44313916      -0.64384735
H        0.64322798       2.43503045       0.67728295
C       -1.78241447       0.00034974      -0.00472694
H       -2.45427497      -0.65498947       0.64260836
H       -2.43311707       0.67328779      -0.65473579
C       -0.91132561       0.90220522       0.91563759
C       -0.01476271      -0.02253852       1.78660255
H       -0.67934791      -0.69751639       2.42135241
H        0.63392994       0.61504881       2.47327442
C        0.01484550      -1.77751727      -0.01636693
H        0.67870853      -2.42144646      -0.68295456
H       -0.62264859      -2.45592969       0.64226336
C        1.78714474       0.01002794       0.00389507
H        2.44202412       0.67113390       0.66197326
H        2.45385902      -0.65136977      -0.64189061
C        0.91606151      -0.90478549       0.90901405
