138
Properties=species:S:1:pos:R:3 pbc="F F F"
C        6.26898685       5.22479229      -7.59810885
C        6.72133073       4.71532159      -6.44681031
O        6.02906224       4.31768705      -5.33937202
C        4.60719396       4.39934285      -5.38065223
N        4.10862663       4.40489034      -4.00833234
C        3.37951827       3.39663246      -3.40729035
C        3.05879712       2.09666956      -3.83726587
C        2.25817059       1.30267293      -3.00766606
C        1.79306220       1.79306220      -1.79306220
C        2.11965057       3.08105224      -1.36282277
C        2.93104675       3.89628749      -2.18116747
C        3.44643046       5.22270777      -2.03630327
C        3.33374265       6.20696243      -1.03131000
C        3.99200734       7.42866865      -1.19680291
Br       3.83664089       8.75505198       0.14383791
C        4.75851516       7.68594869      -2.32805036
C        4.87545045       6.72815931      -3.33822006
C        4.20187047       5.50567150      -3.17299363
H        6.97529889       5.50434689      -8.37610337
H        5.22173336       5.39436385      -7.81627909
H        7.78321892       4.57150710      -6.26823542
H        4.19442559       3.54195162      -5.91972161
H        4.24730773       5.33033546      -5.83391640
H        3.42122720       1.69764387      -4.78001032
H        2.00300843       0.29453698      -3.32602834
H        1.75867324       3.45727103      -0.41126029
H        2.74183449       6.01034670      -0.14303708
H        5.27534190       8.63603355      -2.43996580
H        5.47999948       6.92972778      -4.21771739
C       -5.95664963      -7.70361885      -5.43161951
C       -4.89074073      -7.06519818      -5.92752372
O       -4.26913584      -5.93388916      -5.48309631
C       -4.76646488      -5.32684925      -4.29387491
N       -4.31769781      -3.93770643      -4.26644507
C       -3.40620170      -3.39827648      -3.37896291
C       -2.57684779      -4.00007219      -2.41581257
C       -1.76926894      -3.17282093      -1.62641972
C       -1.79306220      -1.79306220      -1.79306220
C       -2.61039772      -1.19704448      -2.75608339
C       -3.42809227      -2.01326153      -3.56714790
C       -4.34798768      -1.73175006      -4.62570375
C       -4.78271101      -0.54183696      -5.24746711
C       -5.70716481      -0.61740907      -6.29290502
Br      -6.29996675       0.97596899      -7.12385720
C       -6.19801514      -1.84177581      -6.73272326
C       -5.78689539      -3.03032671      -6.12460772
C       -4.86630397      -2.94854271      -5.06568892
H       -6.33012850      -8.59404706      -5.93157359
H       -6.49799864      -7.38514652      -4.54923114
H       -4.38437540      -7.41639180      -6.82219424
H       -4.38862170      -5.85412062      -3.41335650
H       -5.86154356      -5.28861470      -4.26140133
H       -2.54227587      -5.07692707      -2.27967844
H       -1.12138531      -3.62384764      -0.87834080
H       -2.62125952      -0.11987178      -2.88607326
H       -4.39902625       0.41677549      -4.91296750
H       -6.90821636      -1.88836781      -7.55475708
H       -6.16734369      -3.98552704      -6.47457392
C       -6.35041160       7.56018573       5.18129065
C       -5.12439180       7.19057553       5.56849531
O       -4.38426072       6.10542896       5.19643163
C       -4.93892580       5.22615002       4.22211323
N       -4.25715302       3.93915702       4.32553927
C       -3.40890967       3.39360147       3.38092993
C       -2.85717292       3.93117119       2.20438843
C       -2.04329769       3.10774189       1.41747001
C       -1.79306220       1.79306220       1.79306220
C       -2.33417636       1.26290860       2.96644062
C       -3.15261123       2.07797507       3.77791541
C       -3.83545853       1.85511566       5.01486730
C       -3.94969777       0.74443241       5.87788490
C       -4.70316843       0.86558369       7.04872679
Br      -4.86676755      -0.62361354       8.20470094
C       -5.33364584       2.06018652       7.37868185
C       -5.24003198       3.16841830       6.53337956
C       -4.49124385       3.03821963       5.35107212
H       -6.79764648       8.45884396       5.59925870
H       -6.95318928       7.00986336       4.46932367
H       -4.55963552       7.76960103       6.29372489
H       -4.80008979       5.63763696       3.21837207
H       -6.00132031       5.01699503       4.39324425
H       -3.03784210       4.95856974       1.90246954
H       -1.60819734       3.50990936       0.50546706
H       -2.13133768       0.23769395       3.25817293
H       -3.45517994      -0.18919951       5.62923783
H       -5.90756390       2.14551200       8.29826535
H       -5.72844396       4.10200578       6.79699490
C        5.46515053      -5.91391015       7.71282731
C        5.96865544      -4.86980424       7.04500295
O        5.51443628      -4.26112715       5.91055788
C        4.30473960      -4.74694955       5.33549988
N        4.25921075      -4.32383635       3.93880222
C        3.37882138      -3.40583024       3.39878946
C        2.44303432      -2.54711898       4.00257924
C        1.65325949      -1.74025568       3.17499442
C        1.79306220      -1.79306220       1.79306220
C        2.72905553      -2.63964868       1.19482137
C        3.54009422      -3.45724436       2.01116313
C        4.57567000      -4.40228716       1.72748433
C        5.16635809      -4.87100783       0.53464916
C        6.19555069      -5.81366928       0.60825894
Br       6.98469150      -6.45196107      -0.98879762
C        6.64938733      -6.28980774       1.83331915
C        6.07187412      -5.84496821       3.02498750
C        5.02901455      -4.90602680       2.94549425
H        5.97492606      -6.28012115       8.60070194
H        4.56686042      -6.44418860       7.42132729
H        6.87919263      -4.37411856       7.36965025
H        3.44167628      -4.34256047       5.87186208
H        4.25103841      -5.84173293       5.31878825
H        2.32814959      -2.48979296       5.08093882
H        0.92619059      -1.06987845       3.62750471
H        2.83823619      -2.67316174       0.11580662
H        4.82086763      -4.49902952      -0.42467888
H        7.45871528      -7.01457201       1.87805396
H        6.43282113      -6.21407031       3.98055320
C       -0.00445707       0.01189536      -1.78238275
H       -0.66409135       0.67374010      -2.43557963
H        0.65740317      -0.63156657      -2.45157240
C       -0.90989263      -0.90692880      -0.91072765
C        0.90977584       0.90977584      -0.90977584
C       -0.00465871       1.77757030       0.00794375
H       -0.66225468       2.44313916      -0.64384735
H        0.64322798       2.43503045       0.67728295
C       -1.78241447       0.00034974      -0.00472694
H       -2.45427497      -0.65498947       0.64260836
H       -2.43311707       0.67328779      -0.65473579
C       -0.91132561       0.90220522       0.91563759
C       -0.01476271      -0.02253852       1.78660255
H       -0.67934791      -0.69751639       2.42135241
H        0.63392994       0.61504881       2.47327442
C        0.01484550      -1.77751727      -0.01636693
H        0.67870853      -2.42144646      -0.68295456
H       -0.62264859      -2.45592969       0.64226336
C        1.78714474       0.01002794       0.00389507
H        2.44202412       0.67113390       0.66197326
H        2.45385902      -0.65136977      -0.64189061
C        0.91606151      -0.90478549       0.90901405
