189
Properties=species:S:1:pos:R:3 pbc="F F F"
C        0.00000000       0.00000000       0.00000000
C        0.88119467       0.88119467      -0.88119467
C        1.26890504       2.14045512      -0.43702321
C        2.08218700       2.94215221      -1.24649865
C        2.52751308       2.50448055      -2.50869612
C        2.10358953       1.22959645      -2.93384576
C        1.29175107       0.42196972      -2.12810998
C        3.40393146       3.35918125      -3.34211711
N        3.25147976       4.69129822      -3.18375911
C        4.03006387       5.50066974      -3.91698100
N        3.85133411       6.88143058      -3.71499545
N        4.20977444       7.72904713      -4.71598346
C        4.02011348       8.98378842      -4.46040997
C        4.35901774      10.01465922      -5.46066358
C        4.13758518      11.35451609      -5.12499669
C        4.43838060      12.35178118      -6.05396752
C        4.95432757      12.02711200      -7.30856964
C        5.17735673      10.68986286      -7.63965245
C        4.88335387       9.68698217      -6.71814513
O        5.13705807       8.40344431      -7.11762666
N        4.94441840       5.06031980      -4.79389035
C        5.09315639       3.73110469      -4.94715664
C        4.33575907       2.83680020      -4.21789293
C        6.12146771       3.30426298      -5.92026059
C        7.26325681       4.09406575      -6.15157981
C        8.25268949       3.70124552      -7.05815425
C        8.11897523       2.50822289      -7.76112600
C        6.99459835       1.71312522      -7.56338735
C        6.00656385       2.10869737      -6.65536838
H        0.94943197       2.51062111       0.53360450
H        2.37821775       3.92348192      -0.87770546
H        2.38689838       0.84649606      -3.91194362
H        0.98588733      -0.55757437      -2.48689375
H        2.97324630       7.00984010      -3.21925731
H        3.60808934       9.32425690      -3.49315288
H        3.73612042      11.62254863      -4.15181097
H        5.18715408      12.80284227      -8.03362665
H        5.58073041      10.42649750      -8.61408669
H        4.91713107       7.79544632      -6.37348253
H        4.49227948       1.77042994      -4.30543654
H        7.38803953       5.03523486      -5.61666819
H        9.12304013       4.33319844      -7.21458553
H        8.88547521       2.20408921      -8.46881865
H        6.87961929       0.78729765      -8.12132933
H        5.13120462       1.47270141      -6.54811181
C        4.21223767      13.73244157      -5.71303311
C        4.02284297      14.88874464      -5.42750054
Br       3.71660775      16.75838891      -4.96581853
C       -0.88119467      -0.88119467      -0.88119467
C       -1.07092912      -2.21965112      -0.55580312
C       -1.88501102      -3.02192371      -1.36390313
C       -2.52771734      -2.50685694      -2.50611548
C       -2.30163273      -1.15061195      -2.81478706
C       -1.49008492      -0.34225910      -2.00948675
C       -3.40121635      -3.36656472      -3.33744876
N       -3.08541924      -4.67901229      -3.36210556
C       -3.85504125      -5.49293140      -4.09974197
N       -3.50262137      -6.85489797      -4.09024080
N       -3.88665508      -7.62543634      -5.14271361
C       -3.53065430      -8.86763091      -5.06602665
C       -3.87525538      -9.81658883      -6.14249632
C       -3.46872495     -11.14759248      -6.00078052
C       -3.77063611     -12.06651689      -7.00697628
C       -4.46968281     -11.67244030      -8.14788609
C       -4.87693747     -10.34470757      -8.28522700
C       -4.58326072      -9.42026386      -7.28495658
O       -5.02331552      -8.14179496      -7.49301856
N       -4.91317410      -5.07522232      -4.81023212
C       -5.22436304      -3.76573702      -4.78131767
C       -4.48542907      -2.87022439      -4.03479874
C       -6.40526697      -3.36485646      -5.57586786
C       -7.47342074      -4.25920779      -5.77627385
C       -8.60405340      -3.89437991      -6.51365595
C       -8.68947383      -2.62420452      -7.07464578
C       -7.64321191      -1.72309797      -6.90480104
C       -6.51347884      -2.09097063      -6.16618013
H       -0.59567629      -2.65170596       0.32093367
H       -2.02405303      -4.06669899      -1.08865311
H       -2.74355358      -0.70052515      -3.70125933
H       -1.33991550       0.70087023      -2.27616145
H       -2.56139775      -6.92765149      -3.71329447
H       -2.96778533      -9.25862096      -4.19909284
H       -2.92347484     -11.46908846      -5.11791672
H       -4.70369483     -12.38682267      -8.93310550
H       -5.42371300     -10.02791337      -9.16968824
H       -4.78130132      -7.59652976      -6.70822884
H       -4.76740366      -1.82814505      -3.97259725
H       -7.42748767      -5.26146664      -5.35098828
H       -9.41254604      -4.60779705      -6.65048100
H       -9.56600309      -2.34116416      -7.65121582
H       -7.69997186      -0.73465604      -7.35361837
H       -5.70654850      -1.36756207      -6.07790727
C       -3.35434114     -13.43776223      -6.86560897
C       -3.00569409     -14.58618020      -6.74721385
Br      -2.44196131     -16.44307493      -6.55577895
C       -0.88119467       0.88119467       0.88119467
C       -1.15980439       0.49810967       2.18846931
C       -1.96349266       1.31295670       2.99438850
C       -2.50008143       2.52405536       2.51655297
C       -2.21005568       2.87423438       1.18274168
C       -1.40521108       2.06458268       0.37203701
C       -3.33187021       3.38246487       3.39089475
N       -4.04200803       2.74113509       4.34339398
C       -4.80486809       3.48316101       5.15968551
N       -5.51959125       2.78092298       6.14724591
N       -6.64111361       3.35465437       6.65903705
C       -7.24600123       2.65420584       7.56410480
C       -8.48038512       3.15307220       8.20088322
C       -9.08585983       2.35441234       9.17682578
C      -10.26011677       2.79432406       9.78968847
C      -10.83396310       4.01650780       9.43953831
C      -10.22608330       4.81282415       8.46796458
C       -9.05187115       4.38415408       7.85245593
O       -8.51614770       5.22564339       6.91633794
N       -4.90026318       4.81861326       5.07975211
C       -4.18925126       5.45326141       4.12890505
C       -3.37280408       4.75706025       3.26058786
C       -4.32674474       6.92514244       4.09410411
C       -4.58650624       7.65031700       5.27207914
C       -4.70714994       9.04333435       5.26160497
C       -4.57645624       9.74461486       4.06725302
C       -4.33285907       9.05371958       2.88453227
C       -4.21229204       7.65999762       2.89833994
H       -0.75927438      -0.42713352       2.59430772
H       -2.16577573       0.99665369       4.01697571
H       -2.62040742       3.78119977       0.74373087
H       -1.19974912       2.36715058      -0.65169298
H       -5.51337290       1.79701714       5.89195367
H       -6.86089505       1.67187714       7.89272693
H       -8.65059391       1.40015220       9.45973390
H      -11.74956399       4.35927317       9.91478583
H      -10.66437827       5.76770564       8.18923069
H       -7.68010185       4.82646986       6.57948821
H       -2.76391572       5.27316325       2.53106698
H       -4.69790668       7.12289824       6.21913766
H       -4.90784301       9.57471304       6.18826804
H       -4.67402030      10.82685086       4.05751190
H       -4.24432369       9.59685550       1.94706708
H       -4.04741190       7.15493729       1.94966865
C      -10.88704695       1.97574619      10.79491920
C      -11.41210098       1.29018723      11.63679994
Br     -12.26106894       0.18169637      12.99804988
C        0.88119467      -0.88119467       0.88119467
C        1.29549978      -0.42372759       2.12715600
C        2.09852014      -1.23833316       2.93398457
C        2.49961305      -2.52264430       2.51843240
C        2.07428231      -2.94849744       1.24425199
C        1.26931997      -2.13932406       0.43318674
C        3.33288992      -3.37763322       3.39470669
N        4.16634371      -2.72638725       4.23380613
C        4.93521795      -3.46446344       5.04803323
N        5.78078339      -2.75039759       5.91657916
N        6.89369288      -3.37420060       6.38691154
C        7.62315738      -2.65912477       7.18202972
C        8.86427491      -3.20833103       7.76173459
C        9.60769255      -2.39030244       8.61910297
C       10.79159066      -2.87777995       9.17475868
C       11.23942527      -4.16643378       8.88415016
C       10.49415850      -4.98160092       8.03111261
C        9.30922699      -4.50549939       7.47375478
O        8.63514059      -5.36881526       6.65417319
N        4.92135731      -4.80541938       5.07185186
C        4.08768222      -5.44982766       4.23390785
C        3.25775473      -4.75682426       3.37587320
C        4.10896396      -6.92638023       4.31064710
C        4.40916452      -7.57843842       5.52129944
C        4.42174260      -8.97337597       5.61697070
C        4.13944732      -9.75062846       4.49824834
C        3.85229638      -9.13433185       3.28448268
C        3.84012422      -7.73844584       3.19205954
H        1.00180046       0.55978530       2.48443342
H        2.40831919      -0.86265672       3.90842923
H        2.37639175      -3.91719624       0.85175006
H        0.95731708      -2.50117700      -0.54328736
H        5.82864826      -1.79174396       5.58195149
H        7.34275426      -1.62606583       7.45667903
H        9.27152076      -1.38447452       8.85448473
H       12.16234572      -4.54648917       9.31478811
H       10.83363808      -5.98797802       7.79969850
H        7.80703344      -4.92872124       6.35030524
H        2.55292907      -5.27498431       2.74023258
H        4.63853794      -6.99123832       6.41016633
H        4.65725685      -9.44718372       6.56638352
H        4.15289799     -10.83479628       4.57068879
H        3.64523568      -9.73830860       2.40470198
H        3.63636261      -7.29543459       2.22022064
C       11.56027312      -2.03949822      10.05794100
C       12.20404468      -1.33743727      10.79760620
Br      13.24496884      -0.20226409      11.99358226
