74
Properties=species:S:1:pos:R:3 pbc="F F F"
C        1.79194125       1.79194125      -1.79194125
C        1.52878688       3.15900961      -1.88326089
C        2.33315508       3.96703543      -2.68848281
C        3.39615834       3.40636096      -3.39821443
C        3.64894223       2.03780609      -3.29850800
C        2.85142745       1.22306788      -2.49720864
H        0.70243928       3.60265530      -1.33311304
H        2.13157368       5.03314321      -2.76249617
H        4.01797666       4.04122639      -4.02290505
H        3.05246300       0.15794831      -2.42289849
C        4.74624482       1.46180486      -4.03182212
C        5.66523574       0.97940382      -4.64597269
Br       7.15116634       0.19940214      -5.63900223
C       -1.79194125      -1.79194125      -1.79194125
C       -1.59290520      -3.17276318      -1.80538899
C       -2.39741451      -3.98082276      -2.61043606
C       -3.39656729      -3.40643898      -3.39772746
C       -3.58557982      -2.02420807      -3.37546844
C       -2.78738950      -1.20932259      -2.57499189
H       -0.81650520      -3.62712598      -1.19457643
H       -2.24569499      -5.05762306      -2.62389501
H       -4.01889710      -4.04141624      -4.02179476
H       -2.93862748      -0.13351925      -2.56116307
C       -4.61707661      -1.43408251      -4.18871268
C       -5.48095517      -0.93985236      -4.86980473
Br      -6.87777374      -0.14072399      -5.97107297
C       -1.79194125       1.79194125       1.79194125
C       -3.05815663       1.34374903       2.16915172
C       -3.86598287       2.14775106       2.97493938
C       -3.40565555       3.39486412       3.40021405
C       -2.13742783       3.83172108       3.01610742
C       -1.32373706       3.03612808       2.21183884
H       -3.42325930       0.37329630       1.84165200
H       -4.85364265       1.80223885       3.27133156
H       -4.03972999       4.01523118       4.02714692
H       -0.33693196       3.38084944       1.91552840
C       -1.66487758       5.11882817       3.45616604
C       -1.26911675       6.19678037       3.82471514
Br      -0.62920496       7.93973789       4.42062786
C        1.79194125      -1.79194125       1.79194125
C        3.14694757      -1.49108022       1.93302959
C        3.95496366      -2.29541803       2.73829163
C        3.40623727      -3.39577168       3.39872478
C        2.04969414      -3.68610497       3.24945721
C        1.23507163      -2.88895187       2.44768047
H        3.58121249      -0.63540779       1.42158733
H        5.01167686      -2.06446859       2.85106761
H        4.04101666      -4.01732103       4.02377041
H        0.17931021      -3.11924156       2.33475803
C        1.48603008      -4.82197430       3.93186742
C        1.01396142      -5.77326486       4.50338598
Br       0.25066633      -7.31142123       5.42748314
C       -0.00445707       0.01189536      -1.78238275
H       -0.66409135       0.67374010      -2.43557963
H        0.65740317      -0.63156657      -2.45157240
C       -0.90989263      -0.90692880      -0.91072765
C        0.90977584       0.90977584      -0.90977584
C       -0.00465871       1.77757030       0.00794375
H       -0.66225468       2.44313916      -0.64384735
H        0.64322798       2.43503045       0.67728295
C       -1.78241447       0.00034974      -0.00472694
H       -2.45427497      -0.65498947       0.64260836
H       -2.43311707       0.67328779      -0.65473579
C       -0.91132561       0.90220522       0.91563759
C       -0.01476271      -0.02253852       1.78660255
H       -0.67934791      -0.69751639       2.42135241
H        0.63392994       0.61504881       2.47327442
C        0.01484550      -1.77751727      -0.01636693
H        0.67870853      -2.42144646      -0.68295456
H       -0.62264859      -2.45592969       0.64226336
C        1.78714474       0.01002794       0.00389507
H        2.44202412       0.67113390       0.66197326
H        2.45385902      -0.65136977      -0.64189061
C        0.91606151      -0.90478549       0.90901405
