182
Properties=species:S:1:pos:R:3 pbc="F F F"
C        1.79227312       1.79227312      -1.79227312
C        2.09841405       3.08793381      -1.38234072
C        2.90169306       3.89600999      -2.18966259
C        3.40363140       3.41281109      -3.40872170
C        3.08546802       2.10586819      -3.80500599
C        2.28247532       1.29646859      -2.99770388
C        4.25559469       4.30403052      -4.28706588
N        5.61764961       3.79033181      -4.55749582
C        6.38373849       3.62753942      -3.31065113
C        7.80347601       3.14267603      -3.59725081
C        8.57299386       4.14626857      -4.47741149
O        9.82402061       3.54850427      -4.85706085
C        7.74765400       4.34378411      -5.76274073
C        6.29059697       4.71896471      -5.48284955
C        8.96297083       5.41037096      -3.70035877
C        9.69842717       5.28639383      -2.50219067
C       10.04258062       6.40051732      -1.73082738
C        9.67050319       7.66941643      -2.15465518
Br      10.11477282       9.18076540      -1.11127784
C        8.98151087       7.83134623      -3.35155696
C        8.64463015       6.71182782      -4.12249214
H        1.71867212       3.47946826      -0.44096099
H        3.13402416       4.90657775      -1.86006340
H        3.47144405       1.71540314      -4.74445324
H        2.04715248       0.28633354      -3.31922326
H        4.31284262       5.30802108      -3.84404676
H        3.71490773       4.41887526      -5.23639884
H        5.91076883       2.86934045      -2.67629898
H        6.40772402       4.56121410      -2.73503851
H        8.32360791       2.93748328      -2.65511079
H        7.75983593       2.16787767      -4.10455202
H        9.62779394       2.71299060      -5.31282677
H        8.21465757       5.08420531      -6.42359695
H        7.75860209       3.40997134      -6.34365406
H        6.23208954       5.74327121      -5.09925685
H        5.75675211       4.71599614      -6.44166800
H       10.02684124       4.30477816      -2.16430081
H       10.60326417       6.26201363      -0.81074692
H        8.70496110       8.82314210      -3.70015668
H        8.13233057       6.89491765      -5.06173263
C       -1.79227312      -1.79227312      -1.79227312
C       -1.95705336      -1.47338291      -3.13825231
C       -2.76592611      -2.27710218      -3.94433735
C       -3.41212438      -3.40325186      -3.40978794
C       -3.23430515      -3.70914866      -2.05288839
C       -2.42475255      -2.90607140      -1.24582385
C       -4.30426156      -4.25572238      -4.28670715
N       -3.88785978      -5.67155276      -4.40606469
C       -2.54293939      -5.78428626      -4.99470339
C       -2.13620913      -7.24720752      -5.15998619
C       -3.10628463      -7.99820070      -6.09218859
O       -2.77534718      -9.39670111      -6.05753743
C       -4.51702297      -7.84340212      -5.49375374
C       -4.88980392      -6.38501882      -5.21758850
C       -2.92478590      -7.58920221      -7.55971245
C       -1.64757756      -7.68727427      -8.15215983
C       -1.41519729      -7.28722280      -9.47150524
C       -2.46604311      -6.79462856     -10.23390314
Br      -2.16004008      -6.23445816     -12.01231782
C       -3.74590085      -6.72350862      -9.69500460
C       -3.97326863      -7.13104418      -8.37463729
H       -1.46420565      -0.60484802      -3.57004768
H       -2.88812153      -2.01843497      -4.99410881
H       -3.72417767      -4.58168222      -1.62544054
H       -2.29689530      -3.15837844      -0.19743553
H       -4.38072190      -3.80032967      -5.28385889
H       -5.31139170      -4.20819645      -3.85059369
H       -1.80338873      -5.32162342      -4.33139612
H       -2.48602307      -5.26077782      -5.95717575
H       -1.09947753      -7.30775266      -5.50897179
H       -2.12289775      -7.73497579      -4.17439209
H       -2.82868458      -9.69173734      -5.13318939
H       -5.27228476      -8.31860801      -6.13156707
H       -4.56791414      -8.39859044      -4.54572291
H       -5.05973431      -5.85430261      -6.16058068
H       -5.84841479      -6.38263341      -4.68336806
H       -0.81420676      -8.09762242      -7.58409102
H       -0.41563639      -7.37200496      -9.88838336
H       -4.57749590      -6.35841676     -10.29234722
H       -4.99503983      -7.08227898      -8.01166204
C       -1.79227312       1.79227312       1.79227312
C       -2.21556538       3.03270757       1.32041562
C       -3.01891662       3.84104693       2.12740209
C       -3.40394416       3.41312775       3.40809228
C       -2.96878899       2.16129276       3.86626044
C       -2.16562792       1.35161869       3.05940118
C       -4.25694066       4.30602722       4.28372320
N       -5.55848291       3.72398625       4.68300807
C       -6.39173662       3.42332468       3.50686773
C       -7.75166193       2.86732112       3.92441979
C       -8.53041869       3.87763473       4.78862050
O       -9.70830807       3.22696298       5.29431468
C       -7.63810593       4.21948466       5.99658825
C       -6.23284394       4.66925499       5.59031231
C       -9.05914356       5.05519001       3.95936698
C       -9.86143940       4.79862188       2.82695039
C      -10.33358360       5.83032553       2.01001619
C      -10.02493978       7.14777296       2.32186207
Br     -10.64274105       8.54901880       1.21505621
C       -9.27165538       7.43896135       3.45379734
C       -8.80639693       6.40137800       4.27117518
H       -1.92736724       3.38094906       0.33078506
H       -3.34330257       4.80826847       1.74909428
H       -3.26339508       1.81356787       4.85433749
H       -1.83882783       0.38445434       3.42942711
H       -4.41408092       5.27023914       3.78059040
H       -3.66427249       4.52307600       5.18283335
H       -5.90926113       2.65505931       2.89208783
H       -6.51954941       4.31037624       2.87405099
H       -8.31701346       2.56221165       3.03697687
H       -7.60588763       1.93580869       4.49056930
H       -9.42390232       2.44050798       5.78920101
H       -8.11163876       4.97232168       6.63849939
H       -7.54470373       3.33036562       6.63715814
H       -6.27228593       5.66552269       5.13680898
H       -5.63803625       4.76926096       6.50711905
H      -10.14125235       3.77606478       2.57860308
H      -10.94255337       5.59047620       1.14299515
H       -9.04347658       8.46898617       3.71579713
H       -8.24747069       6.68376652       5.15774365
C        1.79227312      -1.79227312       1.79227312
C        1.63794379      -1.75454166       3.17620312
C        2.44617806      -2.55785816       3.98332942
C        3.41058269      -3.40310292       3.41147857
C        3.55150252      -3.42830744       2.01653224
C        2.74293444      -2.62551194       1.20820141
C        4.29668468      -4.25385258       4.29615382
N        4.18908257      -5.71221535       4.06417932
C        2.81905916      -6.19200334       4.31086653
C        2.72288815      -7.70392121       4.11659348
C        3.65133569      -8.45561805       5.08972018
O        3.64949194      -9.84797034       4.73212345
C        5.07691100      -7.92151871       4.85574912
C        5.16146092      -6.39553716       4.93541315
C        3.12331923      -8.42058506       6.52979626
C        1.81427743      -8.87499738       6.79773686
C        1.26608354      -8.82492394       8.08291785
C        2.02754515      -8.33250516       9.13452450
Br       1.29091604      -8.24365553      10.87224449
C        3.33546541      -7.91529022       8.91365843
C        3.88069250      -7.97321224       7.62504537
H        0.89594475      -1.10597658       3.63718004
H        2.31755117      -2.52002354       5.06309060
H        4.29075263      -4.08220108       1.55834673
H        2.86447959      -2.65857272       0.12965695
H        4.09018078      -4.02402569       5.35070398
H        5.32992760      -3.93096835       4.10928588
H        2.12702250      -5.73472441       3.59466136
H        2.47587581      -5.91317560       5.31492523
H        1.67979957      -8.02534192       4.21106049
H        2.99500581      -7.95599351       3.08126631
H        3.93188896      -9.91686179       3.80486056
H        5.79136041      -8.38236295       5.54873648
H        5.41872789      -8.23498876       3.85851084
H        5.03763254      -6.06474379       5.97224128
H        6.17579724      -6.10295125       4.63566777
H        1.20819094      -9.29247007       5.99525920
H        0.25178771      -9.17790899       8.24632802
H        3.94459562      -7.54798937       9.73567489
H        4.91455764      -7.66267828       7.51174494
C       -0.00445707       0.01189536      -1.78238275
H       -0.66409135       0.67374010      -2.43557963
H        0.65740317      -0.63156657      -2.45157240
C       -0.90989263      -0.90692880      -0.91072765
C        0.90977584       0.90977584      -0.90977584
C       -0.00465871       1.77757030       0.00794375
H       -0.66225468       2.44313916      -0.64384735
H        0.64322798       2.43503045       0.67728295
C       -1.78241447       0.00034974      -0.00472694
H       -2.45427497      -0.65498947       0.64260836
H       -2.43311707       0.67328779      -0.65473579
C       -0.91132561       0.90220522       0.91563759
C       -0.01476271      -0.02253852       1.78660255
H       -0.67934791      -0.69751639       2.42135241
H        0.63392994       0.61504881       2.47327442
C        0.01484550      -1.77751727      -0.01636693
H        0.67870853      -2.42144646      -0.68295456
H       -0.62264859      -2.45592969       0.64226336
C        1.78714474       0.01002794       0.00389507
H        2.44202412       0.67113390       0.66197326
H        2.45385902      -0.65136977      -0.64189061
C        0.91606151      -0.90478549       0.90901405
