125
Properties=species:S:1:pos:R:3 pbc="F F F"
C        0.00000000       0.00000000       0.00000000
C        0.88140166       0.88140166      -0.88140166
C        1.78177129       1.76869900      -0.29413048
C        2.57730422       2.58516607      -1.10359870
C        2.46854308       2.52332031      -2.50106566
C        1.58895729       1.59747624      -3.07612778
C        0.78508063       0.78685409      -2.26814828
C        3.34399674       3.42100798      -3.30739401
O        4.45359043       3.73610615      -2.87595669
N        2.90906201       3.92303749      -4.52121746
N        1.64496581       3.76732179      -4.99386616
C        1.38882135       4.35190755      -6.12148374
C        0.05984073       4.21796393      -6.75484947
C       -0.93155045       3.45024371      -6.12844635
C       -2.17563959       3.29661465      -6.73632145
Cl      -3.38482118       2.34296168      -5.97123079
C       -2.44729273       3.90324338      -7.96068787
C       -1.45994919       4.67144580      -8.57938255
C       -0.20479958       4.83148686      -7.98158239
O        0.77222518       5.57856190      -8.58566883
H        1.87316340       1.83409692       0.78714510
H        3.28073344       3.27511851      -0.64180616
H        1.52293958       1.49066875      -4.15529356
H        0.09337180       0.08905191      -2.73123365
H        3.55785471       4.54411818      -4.99625849
H        2.15062975       4.95307460      -6.64952107
H       -0.73450223       2.97004938      -5.17194752
H       -3.42205667       3.77378908      -8.42541758
H        0.41101268       5.92805031      -9.42216157
C       -1.75658418       5.29100515      -9.84498671
C       -2.00501599       5.80988610     -10.90493020
Br      -2.40670921       6.64887270     -12.61876917
C       -0.88140166      -0.88140166      -0.88140166
C       -2.23230857      -0.57530720      -1.03698501
C       -3.04040719      -1.39261756      -1.83304424
C       -2.50264457      -2.52234812      -2.46793635
C       -1.13489320      -2.79275002      -2.33491810
C       -0.32684748      -1.98216864      -1.53106688
C       -3.41745625      -3.35323950      -3.30170297
O       -4.36386386      -2.81995905      -3.88183036
N       -3.22722927      -4.71978311      -3.40630458
N       -2.31882905      -5.41441882      -2.67290589
C       -2.31190623      -6.69757362      -2.85273279
C       -1.33859281      -7.55290842      -2.14115291
C       -0.41448273      -6.96849489      -1.26416197
C        0.52407568      -7.76704928      -0.61432291
Cl       1.66479800      -7.04468349       0.45051420
C        0.55101243      -9.14414124      -0.82350971
C       -0.37383827      -9.72383463      -1.69320627
C       -1.32001329      -8.93320591      -2.35505047
O       -2.22715681      -9.49368002      -3.21561908
H       -2.66619246       0.29222201      -0.54614477
H       -4.09411654      -1.14943205      -1.95410952
H       -0.68103636      -3.62986849      -2.85799703
H        0.72769419      -2.21881293      -1.42253862
H       -3.90752312      -5.21448375      -3.97622450
H       -3.01660166      -7.18996722      -3.54665654
H       -0.42282021      -5.89422320      -1.09045126
H        1.29013464      -9.75593308      -0.31135155
H       -2.06795507     -10.45624606      -3.23702343
C       -0.33197448     -11.14843947      -1.89899373
C       -0.29691356     -12.34154602      -2.07134073
Br      -0.24022301     -14.27069841      -2.35001124
C       -0.88140166       0.88140166       0.88140166
C       -0.44035580       2.14998556       1.25425942
C       -1.24323966       2.94928373       2.07354560
C       -2.48421543       2.47938287       2.52933073
C       -2.93108856       1.21928243       2.11219032
C       -2.12519347       0.41409544       1.30079410
C       -3.29161516       3.37986419       3.40091938
O       -3.20732825       4.60016669       3.25815834
N       -4.11223932       2.85661562       4.38446203
N       -4.14028357       1.54158150       4.72428869
C       -4.92427834       1.23016123       5.70777307
C       -5.06964841      -0.17624463       6.13925035
C       -4.35212959      -1.18155155       5.47656156
C       -4.50881880      -2.51166033       5.86013804
Cl      -3.63702901      -3.74353424       5.03587652
C       -5.36936639      -2.85369931       6.90097143
C       -6.07839353      -1.84995249       7.56243812
C       -5.93303869      -0.51014771       7.18537869
O       -6.63057799       0.48060828       7.82526965
H        0.52172304       2.52619232       0.91564593
H       -0.89679199       3.94000113       2.36086498
H       -3.91043209       0.85218568       2.40628412
H       -2.47883948      -0.56907288       1.00389076
H       -4.61092000       3.53933737       4.94797401
H       -5.51502969       1.99485684       6.24333888
H       -3.67616808      -0.93023702       4.66156362
H       -5.48397052      -3.89611580       7.18929527
H       -7.17390680       0.06566358       8.52165419
C       -6.96431630      -2.22042293       8.63551431
C       -7.70627661      -2.53069192       9.53421562
Br      -8.90596369      -3.03237065      10.98733962
C        0.88140166      -0.88140166       0.88140166
C        0.31533244      -1.58825985       1.94100848
C        1.12733038      -2.38319773       2.75554087
C        2.50774575      -2.46646937       2.51871391
C        3.05433615      -1.78293386       1.42529131
C        2.24553554      -0.97929972       0.61524773
C        3.31805371      -3.33028868       3.42405634
O        2.80619929      -4.32977610       3.92967788
N        4.62931190      -3.00310035       3.72090471
N        5.22051198      -1.83845376       3.34718802
C        6.43703042      -1.66644926       3.75873296
C        7.19683268      -0.45646824       3.37935320
C        6.59412964       0.51295139       2.56596135
C        7.31643199       1.64041287       2.18127739
Cl       6.57799931       2.82093851       1.17231049
C        8.63289291       1.81755396       2.60129957
C        9.22853775       0.85318595       3.41552737
C        8.51571613      -0.28574458       3.80680895
O        9.09540183      -1.24048196       4.60057212
H       -0.75128706      -1.52892722       2.14247506
H        0.68172022      -2.93543017       3.58050772
H        4.11051409      -1.87176420       1.18662360
H        2.69003359      -0.43968478      -0.21606100
H        5.10339648      -3.63232095       4.36251395
H        6.94760933      -2.41619611       4.38941997
H        5.56661630       0.38877707       2.22965545
H        9.18626534       2.70140156       2.29228621
H       10.00661514      -0.95406146       4.80054797
C       10.59018655       1.05101394       3.84023507
C       11.73056742       1.21669489       4.19592777
Br      13.57446683       1.48458696       4.77105279
