186
Properties=species:S:1:pos:R:3 pbc="F F F"
C        1.79146551       1.79146551      -1.79146551
C        3.16588798       1.56227505      -1.84567733
C        3.97517929       2.37137702      -2.64990508
C        3.41192713       3.42137030      -3.38430892
C        2.02401849       3.62375956      -3.34149056
C        1.21437189       2.81451878      -2.54077836
C        4.20868045       4.31169050      -4.26966272
O        3.71097321       4.72067577      -5.31933147
N        5.47946887       4.71571883      -3.91358601
N        6.09427860       4.40701899      -2.74039461
C        7.25028572       4.96859344      -2.57306018
C        8.10569976       4.67416725      -1.40704887
C        9.37187523       5.26675173      -1.34592509
C       10.24822347       4.92517506      -0.31515102
C        9.85971070       3.97422695       0.62876795
C        8.57678693       3.42574698       0.60929628
C        7.69617484       3.77343430      -0.41730956
O       10.71545811       3.55969407       1.66167211
C       11.96864005       3.10328358       1.28365142
O       12.43950256       3.08102887       0.15596783
C       12.71662782       2.61498962       2.47594313
C       14.06537573       2.26537355       2.30649432
C       14.81152870       1.77631847       3.38179308
C       14.20880949       1.63213707       4.62949392
Br      15.21222139       0.95969914       6.08335599
C       12.86974610       1.97554188       4.81252662
C       12.12228128       2.46762822       3.73731455
H        3.61662705       0.75609150      -1.27307150
H        5.04057061       2.16628919      -2.70371102
H        1.57164501       4.41819206      -3.93312757
H        0.14224997       2.99015368      -2.51377091
H        5.92936112       5.34022156      -4.57460582
H        7.66108057       5.67539620      -3.31632076
H        9.69889465       5.97145345      -2.10585221
H       11.23854996       5.37080232      -0.28014816
H        8.27082585       2.71232448       1.36876509
H        6.70655205       3.32363634      -0.45424073
H       14.54137151       2.36832369       1.33227030
H       15.85462491       1.50820707       3.23298393
H       12.39754232       1.85947606       5.78501087
H       11.07788684       2.72113048       3.90162299
C       -1.79146551      -1.79146551      -1.79146551
C       -3.16666253      -1.56594284      -1.84123499
C       -3.97594031      -2.37505883      -2.64546226
C       -3.41182430      -3.42144670      -3.38433535
C       -2.02324706      -3.62009939      -3.34592216
C       -1.21362414      -2.81083386      -2.54521102
C       -4.20856455      -4.31152086      -4.26994826
O       -3.71264316      -4.71621471      -5.32212258
N       -5.47723585      -4.72006038      -3.91147747
N       -6.08963819      -4.41631834      -2.73573567
C       -7.24361690      -4.98156149      -2.56676095
C       -8.09660212      -4.69274114      -1.39757261
C       -9.36095737      -5.28900589      -1.33458879
C      -10.23538267      -4.95271911      -0.30044777
C       -9.84688510      -4.00331315       0.64502854
C       -8.56554391      -3.45122140       0.62352769
C       -7.68682630      -3.79361850      -0.40647391
O      -10.70090581      -3.59401941       1.68144516
C      -11.95639143      -3.14004525       1.30816448
O      -12.43044299      -3.11597570       0.18185509
C      -12.70241503      -2.65713313       2.50387384
C      -14.05259108      -2.31079541       2.33913153
C      -14.79710683      -1.82679314       3.41784588
C      -14.19132719      -1.68439407       4.66426862
Br     -15.19255656      -1.01877282       6.12276484
C      -12.85081506      -2.02458508       4.84263877
C      -12.10497884      -2.51161518       3.76399907
H       -3.61804047      -0.76260243      -1.26514715
H       -5.04204068      -2.17278168      -2.69574845
H       -1.57032010      -4.41163160      -3.94101294
H       -0.14094918      -2.98356541      -2.52165997
H       -5.92723083      -5.34397720      -4.57298047
H       -7.65451526      -5.68744143      -3.31084084
H       -9.68813303      -5.99250605      -2.09556123
H      -11.22437049      -5.40118953      -0.26394042
H       -8.25945185      -2.73905773       1.38412433
H       -6.69855908      -3.34097402      -0.44489602
H      -14.53100312      -2.41236890       1.36594712
H      -15.84135056      -1.56116796       3.27267047
H      -12.37623615      -1.90990171       5.81413035
H      -11.05943431      -2.76267064       3.92471063
C       -1.79146551       1.79146551       1.79146551
C       -2.61120362       2.75605882       1.20657792
C       -3.41650501       3.56683507       2.01312131
C       -3.38689190       3.42539827       3.40531620
C       -2.57772264       2.43271785       3.97882812
C       -1.77509364       1.62048795       3.17408744
C       -4.22526117       4.24244944       4.32232306
O       -4.68163162       3.72622823       5.34312060
N       -4.46593227       5.57706352       4.06577792
N       -3.93950280       6.27694286       3.02524654
C       -4.22302101       7.54158994       3.02732838
C       -3.82125144       8.43894435       1.92672009
C       -4.23650489       9.77440521       1.97364196
C       -3.96834373      10.62206912       0.89813670
C       -3.31142400      10.11867588      -0.22493018
C       -2.84049553       8.80545180      -0.25270970
C       -3.10122796       7.95881404       0.82687670
O       -3.05378966      10.91312112      -1.35343072
C       -4.14128213      11.56308138      -1.91609130
O       -5.29143709      11.57586917      -1.50274265
C       -3.72398167      12.28333113      -3.15163849
C       -4.66032837      13.12963773      -3.76571114
C       -4.33587818      13.81147756      -4.94130166
C       -3.07413767      13.64540230      -5.50808733
Br      -2.63618253      14.55719892      -7.10481692
C       -2.13383530      12.80789894      -4.90897287
C       -2.45659639      12.12659155      -3.73059299
H       -2.63632942       2.88199521       0.12746542
H       -4.06992206       4.29679808       1.54385068
H       -2.57064843       2.29350280       5.05881341
H       -1.14885671       0.86166711       3.63565074
H       -5.03009849       6.05052998       4.76356003
H       -4.80718929       8.00029958       3.84530866
H       -4.79169833      10.15983933       2.82466264
H       -4.30894821      11.65342929       0.92712294
H       -2.29919160       8.43224190      -1.11704825
H       -2.76382936       6.92527546       0.79532431
H       -5.65128365      13.25867909      -3.33253785
H       -5.07352253      14.46161276      -5.40528724
H       -1.15031345      12.67462078      -5.35292673
H       -1.71045671      11.47276938      -3.28583176
C        1.79146551      -1.79146551       1.79146551
C        2.26386561      -3.00852301       1.30145174
C        3.06844164      -3.81882948       2.10919027
C        3.38400197      -3.42030875       3.41329563
C        2.92428463      -2.18090893       3.88407505
C        2.12294279      -1.36949062       3.07723562
C        4.24425086      -4.22380699       4.32197582
O        5.00869227      -3.64637185       5.09591634
N        4.16983166      -5.60190997       4.33703208
N        3.30006548      -6.34256544       3.59906128
C        3.33854001      -7.61590253       3.83749679
C        2.53784438      -8.58487152       3.06419998
C        2.69944424      -9.94771574       3.33739209
C        2.04136517     -10.89505466       2.55212973
C        1.24974325     -10.47080543       1.48462102
C        1.03519028      -9.11298269       1.24506466
C        1.68691004      -8.16417690       2.03583176
O        0.59943706     -11.37943619       0.63460682
C        1.39086284     -12.35273164       0.04467772
O        2.58241027     -12.55134144       0.23081189
C        0.57715224     -13.17370954      -0.89518746
C        1.17616494     -14.30968244      -1.46159242
C        0.47198376     -15.10408764      -2.37001732
C       -0.83301834     -14.76173754      -2.71726656
Br      -1.78422207     -15.82767590      -3.95488930
C       -1.44084950     -13.63603395      -2.16242308
C       -0.73774446     -12.84123817      -1.25089877
H        2.01834150      -3.33350760       0.29394095
H        3.45146857      -4.75230816       1.70679408
H        3.18971219      -1.84718991       4.88606254
H        1.76945837      -0.41604881       3.46066738
H        4.78121316      -6.05474528       5.00823007
H        3.99920131      -8.03704680       4.61654942
H        3.35345093     -10.28610592       4.13664346
H        2.18354478     -11.95344368       2.75251198
H        0.38916913      -8.79190366       0.43331246
H        1.54761088      -7.10491003       1.83190822
H        2.19862066     -14.57943547      -1.20063123
H        0.95144857     -15.97950442      -2.80110494
H       -2.45787910     -13.36591404      -2.43602743
H       -1.22903987     -11.96389995      -0.83746575
C       -0.00445707       0.01189536      -1.78238275
H       -0.66409135       0.67374010      -2.43557963
H        0.65740317      -0.63156657      -2.45157240
C       -0.90989263      -0.90692880      -0.91072765
C        0.90977584       0.90977584      -0.90977584
C       -0.00465871       1.77757030       0.00794375
H       -0.66225468       2.44313916      -0.64384735
H        0.64322798       2.43503045       0.67728295
C       -1.78241447       0.00034974      -0.00472694
H       -2.45427497      -0.65498947       0.64260836
H       -2.43311707       0.67328779      -0.65473579
C       -0.91132561       0.90220522       0.91563759
C       -0.01476271      -0.02253852       1.78660255
H       -0.67934791      -0.69751639       2.42135241
H        0.63392994       0.61504881       2.47327442
C        0.01484550      -1.77751727      -0.01636693
H        0.67870853      -2.42144646      -0.68295456
H       -0.62264859      -2.45592969       0.64226336
C        1.78714474       0.01002794       0.00389507
H        2.44202412       0.67113390       0.66197326
H        2.45385902      -0.65136977      -0.64189061
C        0.91606151      -0.90478549       0.90901405
