194
Properties=species:S:1:pos:R:3 pbc="F F F"
C        1.79146551       1.79146551      -1.79146551
C        3.16588798       1.56227505      -1.84567733
C        3.97517929       2.37137702      -2.64990508
C        3.41192713       3.42137030      -3.38430892
C        2.02401849       3.62375956      -3.34149056
C        1.21437189       2.81451878      -2.54077836
C        4.20868045       4.31169050      -4.26966272
O        3.71097321       4.72067577      -5.31933147
N        5.47946887       4.71571883      -3.91358601
N        6.09427860       4.40701899      -2.74039461
C        7.25028572       4.96859344      -2.57306018
C        8.10569976       4.67416725      -1.40704887
C        9.37187523       5.26675173      -1.34592509
C       10.24822347       4.92517506      -0.31515102
C        9.85971070       3.97422695       0.62876795
C        8.57678693       3.42574698       0.60929628
C        7.69617484       3.77343430      -0.41730956
O       10.71545811       3.55969407       1.66167211
C       11.96864005       3.10328358       1.28365142
O       12.43950256       3.08102887       0.15596783
C       12.71662782       2.61498962       2.47594313
C       14.06537573       2.26537355       2.30649432
C       14.81152870       1.77631847       3.38179308
C       14.20880949       1.63213707       4.62949392
C       12.86974610       1.97554188       4.81252662
C       12.12228128       2.46762822       3.73731455
H        3.61662705       0.75609150      -1.27307150
H        5.04057061       2.16628919      -2.70371102
H        1.57164501       4.41819206      -3.93312757
H        0.14224997       2.99015368      -2.51377091
H        5.92936112       5.34022156      -4.57460582
H        7.66108057       5.67539620      -3.31632076
H        9.69889465       5.97145345      -2.10585221
H       11.23854996       5.37080232      -0.28014816
H        8.27082585       2.71232448       1.36876509
H        6.70655205       3.32363634      -0.45424073
H       14.54137151       2.36832369       1.33227030
H       15.85462491       1.50820707       3.23298393
H       12.39754232       1.85947606       5.78501087
H       11.07788684       2.72113048       3.90162299
C       14.97324712       1.11984809       5.73710175
C       15.61346364       0.69080606       6.66472330
Br      16.64863961      -0.00291861       8.16460890
C       -1.79146551      -1.79146551      -1.79146551
C       -3.13260291      -1.46002684      -1.98121061
C       -3.94227756      -2.26869605      -2.78548779
C       -3.41491598      -3.41893853      -3.38375186
C       -2.05718777      -3.72579939      -3.20628145
C       -1.24687094      -2.91732171      -2.40547638
C       -4.21269844      -4.31621640      -4.26111882
O       -3.67060979      -4.85166924      -5.22870142
N       -5.53756385      -4.58669129      -3.98451856
N       -6.21430125      -4.13101177      -2.89637918
C       -7.42377839      -4.58319643      -2.78496452
C       -8.34013839      -4.12332264      -1.72345484
C       -9.65331064      -4.60671719      -1.72452422
C      -10.57574886      -4.10995481      -0.80284589
C      -10.18285085      -3.11522723       0.09290838
C       -8.86011184      -2.67338796       0.14026217
C       -7.93429155      -3.17619854      -0.77642862
O      -11.07874273      -2.54744854       1.01271121
C      -12.25443588      -2.02766175       0.49382543
O      -12.63119783      -2.06506892      -0.66829685
C      -13.04955650      -1.38146484       1.57534702
C      -14.34577779      -0.94232496       1.26384778
C      -15.12977889      -0.30554565       2.22927045
C      -14.61726181      -0.10295278       3.50876194
C      -13.33119857      -0.53399506       3.83243225
C      -12.54616122      -1.17388107       2.86744734
H       -3.55634977      -0.57468153      -1.51475874
H       -4.97858664      -1.98554682      -2.94643735
H       -1.62930855      -4.60123402      -3.69242207
H       -0.19923767      -3.17404690      -2.27288999
H       -5.98576374      -5.22810290      -4.63032186
H       -7.83371236      -5.31648250      -3.50260267
H       -9.97854448      -5.34595596      -2.45169987
H      -11.60029230      -4.47139949      -0.81780866
H       -8.55500920      -1.92386537       0.86448933
H       -6.90993733      -2.81072134      -0.76377046
H      -14.75048029      -1.09052446       0.26357985
H      -16.13104552       0.03029480       1.97090267
H      -12.92900066      -0.37261911       4.82961226
H      -11.54357595      -1.49398571       3.14016733
C      -15.41998093       0.56111462       4.50287285
C      -16.09225820       1.11727106       5.33544074
Br     -17.17927369       2.01652900       6.68163259
C       -1.79146551       1.79146551       1.79146551
C       -2.52141206       2.83289516       1.21953314
C       -3.32648450       3.64358544       2.02639145
C       -3.38584595       3.42426046       3.40749994
C       -2.66731737       2.35607573       3.96587551
C       -1.86509374       1.54399292       3.16058237
C       -4.22996909       4.23705245       4.32301212
O       -4.77274311       3.69289649       5.28534085
N       -4.38147322       5.59551213       4.13178835
N       -3.75760855       6.31974067       3.16434298
C       -3.97073760       7.59672093       3.22448080
C       -3.45676459       8.52835715       2.20179413
C       -3.79991997       9.88112932       2.30350276
C       -3.42332260      10.76963604       1.29559091
C       -2.73080057      10.29140300       0.18296613
C       -2.33204048       8.95649954       0.10469760
C       -2.70141428       8.06835835       1.11714608
O       -2.36453802      11.13039193      -0.88144989
C       -3.37998806      11.87257389      -1.46428975
O       -4.54981786      11.92956895      -1.11482322
C       -2.85242069      12.63419659      -2.63094297
C       -3.70341057      13.56611858      -3.24527419
C       -3.27400118      14.29156378      -4.35951088
C       -1.99244300      14.08371861      -4.86470897
C       -1.13615437      13.16116434      -4.26455734
C       -1.56401327      12.43599797      -3.14741630
H       -2.47666786       3.01927800       0.14984419
H       -3.91029225       4.43508829       1.56519028
H       -2.73083673       2.15746040       5.03466751
H       -1.30951791       0.72573246       3.61092419
H       -4.95841415       6.06191687       4.82385747
H       -4.57542995       8.04296644       4.03440114
H       -4.38168792      10.25082884       3.14368354
H       -3.70776022      11.81592429       1.36581593
H       -1.76266887       8.60052693      -0.74881055
H       -2.42014263       7.02022666       1.04405983
H       -4.70930959      13.72862892      -2.86051360
H       -3.94646645      15.00811094      -4.82472934
H       -0.13727009      12.99545714      -4.66071972
H       -0.88216308      11.71633884      -2.70110760
C       -1.55077780      14.82363711      -6.01842145
C       -1.18088320      15.44331885      -6.98465564
Br      -0.58279491      16.44529181      -8.54697462
C        1.79146551      -1.79146551       1.79146551
C        2.32395328      -2.97304315       1.27684393
C        3.12862545      -3.78345602       2.08437993
C        3.38429025      -3.42131522       3.41200090
C        2.86433388      -2.21629301       3.90864171
C        2.06282081      -1.40468988       3.10215834
C        4.24082326      -4.22662291       4.32258750
O        4.95675995      -3.65120044       5.14302005
N        4.21545110      -5.60612871       4.28719389
N        3.39893416      -6.34950967       3.49324837
C        3.47481243      -7.62848735       3.68863956
C        2.73670107      -8.59623543       2.85397937
C        2.93756021      -9.96158953       3.08540231
C        2.34152587     -10.90236242       2.24466126
C        1.57265432     -10.46775076       1.16476462
C        1.31792263      -9.11045459       0.96486041
C        1.90736216      -8.16863468       1.81092187
O        0.98523752     -11.36726962       0.26097292
C        1.83106475     -12.29074565      -0.33353820
O        3.02180758     -12.45449645      -0.11174043
C        1.08041409     -13.10515798      -1.32989775
C        1.73909307     -14.19862159      -1.91345970
C        1.09579179     -14.98382725      -2.87356496
C       -0.20784130     -14.67466279      -3.25536886
C       -0.87455840     -13.59134623      -2.68402647
C       -0.23245335     -12.80589905      -1.72085076
H        2.12531865      -3.26996048       0.25051092
H        3.55863399      -4.68805102       1.66388581
H        3.08272501      -1.90976406       4.93047557
H        1.66225850      -0.47845194       3.50546412
H        4.81906754      -6.06130904       4.96381191
H        4.12277173      -8.05418043       4.47584537
H        3.57520218     -10.30558742       3.89541071
H        2.51458181     -11.96169964       2.41321899
H        0.68931098      -8.78302074       0.14205352
H        1.73727428      -7.10819374       1.63896111
H        2.76091580     -14.44197343      -1.62546433
H        1.62102789     -15.82606047      -3.31724031
H       -1.89053677     -13.34698602      -2.98444174
H       -0.76896246     -11.96152295      -1.29516616
C       -0.86977136     -15.47698717      -4.25122235
C       -1.42413779     -16.14893384      -5.08524964
Br      -2.32050142     -17.23541477      -6.43380125
C       -0.00445707       0.01189536      -1.78238275
H       -0.66409135       0.67374010      -2.43557963
H        0.65740317      -0.63156657      -2.45157240
C       -0.90989263      -0.90692880      -0.91072765
C        0.90977584       0.90977584      -0.90977584
C       -0.00465871       1.77757030       0.00794375
H       -0.66225468       2.44313916      -0.64384735
H        0.64322798       2.43503045       0.67728295
C       -1.78241447       0.00034974      -0.00472694
H       -2.45427497      -0.65498947       0.64260836
H       -2.43311707       0.67328779      -0.65473579
C       -0.91132561       0.90220522       0.91563759
C       -0.01476271      -0.02253852       1.78660255
H       -0.67934791      -0.69751639       2.42135241
H        0.63392994       0.61504881       2.47327442
C        0.01484550      -1.77751727      -0.01636693
H        0.67870853      -2.42144646      -0.68295456
H       -0.62264859      -2.45592969       0.64226336
C        1.78714474       0.01002794       0.00389507
H        2.44202412       0.67113390       0.66197326
H        2.45385902      -0.65136977      -0.64189061
C        0.91606151      -0.90478549       0.90901405
