182
Properties=species:S:1:pos:R:3 pbc="F F F"
C        1.79116100       1.79116100      -1.79116100
C        3.03541437       1.33118450      -2.21037042
C        3.84003545       2.14596951      -3.01367741
C        3.41407631       3.42463170      -3.40718116
C        2.15389990       3.86724011      -2.97352479
C        1.34577034       3.05503823      -2.16914494
C        4.29960682       4.25200069      -4.23580906
N        3.98503069       5.50522007      -4.69756784
H        3.10381513       5.97424813      -4.56130867
C        5.04872827       6.02892210      -5.40167708
C        4.97166197       7.35212560      -6.01851435
C        5.42275939       7.57179341      -7.32523563
C        5.33913766       8.84204692      -7.90267015
C        4.78603225       9.90190102      -7.18685889
C        4.32111662       9.69522087      -5.89095353
C        4.41731581       8.42913038      -5.30884817
C        5.99414110       5.01379003      -5.35571209
N        5.50819011       3.92745997      -4.65284337
C        7.32627594       4.99577652      -5.94354964
C        8.13850205       6.13672013      -5.99234339
C        9.40543175       6.08453148      -6.58325895
C        9.87557964       4.88282122      -7.10857304
C        9.09598295       3.73130946      -7.04120661
C        7.82726276       3.78965462      -6.45734100
H        3.39317041       0.34734327      -1.91931110
H        4.81526055       1.77893243      -3.33244292
H        1.77268357       4.84772403      -3.24147138
H        0.37491468       3.42006721      -1.84241859
H        5.84406500       6.75672277      -7.90965745
H        5.70500783       9.00186838      -8.91415884
H        4.71914723      10.88842959      -7.63839367
H        3.88982015      10.51995334      -5.32951787
H        4.06850736       8.30041774      -4.28674602
H        7.79927624       7.07818291      -5.56762784
H       10.01395127       6.98393533      -6.62334913
H        9.46052144       2.78700924      -7.43558023
H        7.22294716       2.88557210      -6.40363156
C       11.17803750       4.83069734      -7.72052617
C       12.26884596       4.78704359      -8.23303691
Br      14.03259097       4.71645918      -9.06172343
C       -1.79116100      -1.79116100      -1.79116100
C       -2.86465892      -1.23380678      -2.47850360
C       -3.67120273      -2.04811004      -3.28036959
C       -3.41687532      -3.42318892      -3.40582493
C       -2.32699398      -3.96346326      -2.70420755
C       -1.51762651      -3.15200369      -1.90032331
C       -4.30074805      -4.24233582      -4.24433270
N       -4.14074192      -5.58809245      -4.45898423
H       -3.38157312      -6.14982812      -4.10797069
C       -5.16457440      -6.06421008      -5.25054296
C       -5.22548572      -7.47015202      -5.64666418
C       -5.51303062      -7.84150380      -6.96525400
C       -5.56424469      -9.19007468      -7.32953536
C       -5.30961875     -10.18129059      -6.38388282
C       -5.00925054      -9.82644469      -5.07159579
C       -4.97168191      -8.47931082      -4.70430163
C       -5.91967854      -4.92985493      -5.51410976
N       -5.36287687      -3.82178571      -4.90383087
C       -7.12968725      -4.81924371      -6.31667114
C       -8.10867268      -5.82174693      -6.33714596
C       -9.24885952      -5.68781026      -7.13655239
C       -9.42608970      -4.53790531      -7.90297888
C       -8.47979915      -3.51720379      -7.87149608
C       -7.33789379      -3.65860199      -7.07776260
H       -3.08789595      -0.17342283      -2.39850600
H       -4.51290435      -1.60324441      -3.81048714
H       -2.08367217      -5.02003924      -2.75816758
H       -0.68099606      -3.59292167      -1.36348274
H       -5.69997400      -7.08558986      -7.72488136
H       -5.80135007      -9.46514758      -8.35453740
H       -5.34705545     -11.22944936      -6.66946569
H       -4.81088201     -10.59714190      -4.33126747
H       -4.75804657      -8.23027410      -3.66735045
H       -8.00010063      -6.71615809      -5.72882827
H       -9.98940470      -6.48296543      -7.14886561
H       -8.61695957      -2.61118461      -8.45496674
H       -6.60262412      -2.85595605      -7.05357066
C      -10.59786302      -4.40246342      -8.72893457
C      -11.57922317      -4.28903083      -9.42067245
Br     -13.16599954      -4.10561994     -10.53915410
C       -1.79116100       1.79116100       1.79116100
C       -1.32702761       3.03091657       2.21902511
C       -2.13784680       3.83124658       3.03058899
C       -3.41697323       3.40578976       3.42312618
C       -3.86512759       2.15161413       2.97792308
C       -3.05657776       1.34743614       2.16593961
C       -4.22580093       4.27125838       4.29035726
N       -5.49394392       3.97282976       4.72104492
H       -6.02469319       3.15839728       4.45628146
C       -5.95349380       4.96711396       5.55871968
C       -7.29036126       4.90483223       6.14710842
C       -8.12884134       6.02549181       6.16545528
C       -9.40599718       5.94933850       6.72851905
C       -9.86583339       4.74700665       7.26195213
C       -9.04786772       3.62067287       7.23875043
C       -7.76642154       3.70025703       6.68861580
C       -4.90653788       5.87809301       5.57901234
N       -3.86593936       5.44162409       4.78093000
C       -4.82719574       7.14386955       6.29453681
C       -5.37842726       7.31802022       7.57111809
C       -5.29907674       8.55556046       8.21858498
C       -4.64665819       9.62004847       7.60026724
C       -4.06536561       9.45743565       6.34569776
C       -4.15408803       8.22158400       5.69858635
H       -0.34034450       3.38559766       1.93388261
H       -1.76327937       4.79832375       3.36503278
H       -4.84249557       1.76702632       3.25235709
H       -3.42320544       0.37831028       1.83588476
H       -7.79827785       6.97103988       5.74112749
H      -10.04240883       6.83088486       6.74774137
H      -10.86033750       4.68875127       7.69688172
H       -9.40315896       2.68143546       7.65469695
H       -7.13908601       2.81193273       6.70465238
H       -5.87144667       6.49357340       8.08006692
H       -5.74521619       8.67364255       9.20237699
H       -3.54253985      10.27801446       5.86255660
H       -3.69459252       8.09831680       4.71924151
C       -4.56899993      10.89487782       8.26538326
C       -4.50396113      11.96254740       8.82241792
Br      -4.39879890      13.68887881       9.72309586
C        1.79116100      -1.79116100       1.79116100
C        1.36768257      -3.06974565       2.13954108
C        2.17796769      -3.87013398       2.95158069
C        3.41615992      -3.40610748       3.42362176
C        3.82379556      -2.11303453       3.05783471
C        3.01561047      -1.30868330       2.24565974
C        4.22503060      -4.27423788       4.28814809
N        5.45658439      -3.93928237       4.79195185
H        5.95939260      -3.08984153       4.59013780
C        5.92442455      -4.95043444       5.60446845
C        7.22863700      -4.85550454       6.25816038
C        8.11789708      -5.93644243       6.26544892
C        9.36301885      -5.82918098       6.89165490
C        9.74024532      -4.63397359       7.50057326
C        8.87140540      -3.54620873       7.48967690
C        7.62157782      -3.65770534       6.87601120
C        4.92226206      -5.90804688       5.53333428
N        3.89943449      -5.48182843       4.70723054
C        4.87088738      -7.20880111       6.18591361
C        5.37112713      -7.41836013       7.47807831
C        5.32149495      -8.68769452       8.06403271
C        4.74939501      -9.75007457       7.36750432
C        4.21870800      -9.55444602       6.09534500
C        4.27775604      -8.28638698       5.51011535
H        0.41303515      -3.45496235       1.79182727
H        1.83510934      -4.86810239       3.22342417
H        4.76820935      -1.69788946       3.39578017
H        3.35024890      -0.30924129       1.97791028
H        7.85245208      -6.87474397       5.78324917
H       10.03920803      -6.68076358       6.90106344
H       10.71001495      -4.55132456       7.98463098
H        9.16220673      -2.61267909       7.96440555
H        6.95251717      -2.80062781       6.90252614
H        5.80059833      -6.59753822       8.04695044
H        5.72752242      -8.83212802       9.06158530
H        3.75813632     -10.37399546       5.55097913
H        3.85795191      -8.13759956       4.51659935
C        4.70242632     -11.05738156       7.96945313
C        4.66309003     -12.15225117       8.47358526
Br       4.59948659     -13.92256272       9.28872427
C       -0.00445707       0.01189536      -1.78238275
H       -0.66409135       0.67374010      -2.43557963
H        0.65740317      -0.63156657      -2.45157240
C       -0.90989263      -0.90692880      -0.91072765
C        0.90977584       0.90977584      -0.90977584
C       -0.00465871       1.77757030       0.00794375
H       -0.66225468       2.44313916      -0.64384735
H        0.64322798       2.43503045       0.67728295
C       -1.78241447       0.00034974      -0.00472694
H       -2.45427497      -0.65498947       0.64260836
H       -2.43311707       0.67328779      -0.65473579
C       -0.91132561       0.90220522       0.91563759
C       -0.01476271      -0.02253852       1.78660255
H       -0.67934791      -0.69751639       2.42135241
H        0.63392994       0.61504881       2.47327442
C        0.01484550      -1.77751727      -0.01636693
H        0.67870853      -2.42144646      -0.68295456
H       -0.62264859      -2.45592969       0.64226336
C        1.78714474       0.01002794       0.00389507
H        2.44202412       0.67113390       0.66197326
H        2.45385902      -0.65136977      -0.64189061
C        0.91606151      -0.90478549       0.90901405
