181
Properties=species:S:1:pos:R:3 pbc="F F F"
C        0.00000000       0.00000000       0.00000000
C        0.88204070       0.88204070      -0.88204070
C        1.82519757       0.29260726      -1.72498106
C        2.62352056       1.09571033      -2.54208550
C        2.47933363       2.48229897      -2.49125895
C        1.52760140       3.07374492      -1.65974644
C        0.72854187       2.26863795      -0.84609473
O        3.18982940       3.34361102      -3.34551938
C        4.56174826       3.15585374      -3.51558002
O        5.26804739       2.35910024      -2.91247913
C        5.05982559       4.14079304      -4.56019051
H        4.20828178       4.42794832      -5.19221818
C        6.10307003       3.47705337      -5.46532661
C        6.65785044       4.46442049      -6.48751902
C        7.23193067       5.70363891      -5.80705837
C        6.20080535       6.37955892      -4.89365977
H        5.39407188       6.76359378      -5.53274319
C        5.62223770       5.39028991      -3.87581663
C        6.82202803       7.56694260      -4.17318971
O        8.01653937       7.70935790      -3.95685866
O        5.80172680       8.44800663      -3.80802593
C        6.12788226       9.62542656      -3.11162945
C        5.47471437      10.78962647      -3.51921888
C        5.70449242      11.98461315      -2.83520092
C        6.57567765      11.99981080      -1.74525891
C        7.21463814      10.83082048      -1.32965774
C        6.98236427       9.63322899      -2.00951205
H        1.94225318      -0.78744587      -1.75783770
H        3.34531552       0.63028036      -3.20698065
H        1.40311947       4.15260950      -1.64610481
H       -0.01191025       2.72757934      -0.19637205
H        5.65730068       2.62013061      -5.98485407
H        6.93016728       3.07834625      -4.86361442
H        7.43678062       3.97801533      -7.08528486
H        5.86157503       4.76185939      -7.18080223
H        8.11885362       5.41488140      -5.22809906
H        7.57719864       6.41353397      -6.56867118
H        6.39722211       5.10463127      -3.15119134
H        4.83287529       5.87615897      -3.28765693
H        4.79125053      10.77031814      -4.36318319
H        5.20023373      12.89286715      -3.15448786
H        7.89083799      10.84030516      -0.47878515
H        7.47446470       8.72506269      -1.67341979
C        6.80996282      13.23135680      -1.03673586
C        7.00617666      14.26277657      -0.44334781
Br       7.32343784      15.93049511       0.51611047
C       -0.88204070      -0.88204070      -0.88204070
C       -1.01363645      -2.24011172      -0.58903771
C       -1.82975183      -3.04592262      -1.38564194
C       -2.49059776      -2.48410915      -2.47818464
C       -2.37199023      -1.12377870      -2.76532383
C       -1.55799735      -0.31960579      -1.96567141
O       -3.39160240      -3.21744590      -3.26991150
C       -3.02877416      -4.48862069      -3.71578718
O       -1.93838706      -5.02594921      -3.57529049
C       -4.20996583      -5.09963087      -4.45121244
H       -5.12577830      -4.60984602      -4.09282395
C       -4.32741377      -6.59240746      -4.12562878
C       -5.47412125      -7.23887982      -4.89678889
C       -5.32782633      -7.01567041      -6.39913121
C       -5.20568492      -5.52530296      -6.74303616
H       -6.15986948      -5.04666048      -6.48387889
C       -4.06884646      -4.86181689      -5.95768090
C       -4.98745340      -5.33766843      -8.23703851
O       -4.51588578      -6.17886508      -8.98800507
O       -5.41260794      -4.05501541      -8.59013601
C       -5.29858844      -3.63801578      -9.92833405
C       -6.38610640      -2.94072150     -10.45673183
C       -6.31975721      -2.44466747     -11.75988180
C       -5.16340315      -2.64168665     -12.51565755
C       -4.07127517      -3.32487735     -11.97896384
C       -4.13369856      -3.81767540     -10.67373136
H       -0.49188882      -2.67844262       0.25768643
H       -1.94000112      -4.09899055      -1.14358487
H       -2.91129183      -0.68880681      -3.60173514
H       -1.46283112       0.73970595      -2.18891597
H       -4.48378230      -6.72973365      -3.04876941
H       -3.39098683      -7.11007540      -4.37106572
H       -5.50168202      -8.31357021      -4.68482858
H       -6.42875903      -6.82078760      -4.55469001
H       -4.44442519      -7.56040741      -6.75700148
H       -6.19050868      -7.44885939      -6.92003572
H       -3.10033774      -5.24385720      -6.30884978
H       -4.05211714      -3.78323570      -6.16133834
H       -7.28059180      -2.78309760      -9.86106246
H       -7.16766247      -1.90568127     -12.17424501
H       -3.16860260      -3.47617895     -12.56514675
H       -3.27561808      -4.33859757     -10.25873153
C       -5.09282867      -2.12667036     -13.85855645
C       -5.03372254      -1.69534422     -14.98323428
Br      -4.93815293      -0.99792634     -16.80174321
C       -0.88204070       0.88204070       0.88204070
C       -0.30268566       1.90186706       1.63823316
C       -1.10814856       2.71814199       2.43502585
C       -2.48379840       2.49074023       2.47835292
C       -3.06759660       1.48082923       1.71266694
C       -2.26069127       0.66808904       0.91449424
O       -3.36145576       3.32557977       3.19192428
C       -3.04154903       3.69219733       4.49943566
O       -2.09787032       3.28079148       5.16096496
C       -4.08992721       4.67287366       4.99800826
H       -4.55203937       5.15228029       4.12412862
C       -3.43398321       5.77542211       5.83604469
C       -4.47536142       6.74108141       6.39334713
C       -5.54214256       6.00337858       7.19710680
C       -6.20762707       4.89286722       6.37352975
H       -6.76094728       5.37393910       5.55552248
C       -5.16766075       3.92862955       5.79205394
C       -7.21277834       4.12779219       7.22158981
O       -7.18835066       4.05307794       8.44132734
O       -8.15006518       3.53519510       6.37249908
C       -9.18228486       2.75676782       6.92588559
C      -10.45648883       2.94043446       6.38663643
C      -11.51864245       2.15971080       6.84595324
C      -11.29279891       1.19722200       7.83072644
C      -10.01446506       1.00437280       8.35627850
C       -8.94949233       1.78097038       7.89464261
H        0.77026166       2.07297869       1.60992799
H       -0.65321028       3.51975044       3.00961581
H       -4.14271094       1.32781805       1.73130479
H       -2.71333802      -0.12024832       0.31895143
H       -2.70822722       6.32747853       5.22657962
H       -2.86871982       5.33547491       6.66793323
H       -3.98453374       7.48636819       7.02917888
H       -4.94920905       7.28680125       5.56822634
H       -5.08127478       5.58100611       8.09955319
H       -6.30045906       6.71700326       7.54194147
H       -4.70379452       3.34793439       6.60131581
H       -5.66039792       3.19151504       5.14477823
H      -10.62495404       3.68542134       5.61437648
H      -12.51227750       2.30497189       6.43033936
H       -9.83626076       0.25276520       9.12090234
H       -7.95515909       1.61757253       8.30021556
C      -12.38727334       0.38876185       8.30202030
C      -13.30389568      -0.28832353       8.69672890
Br     -14.78599647      -1.38311332       9.33493933
C        0.88204070      -0.88204070       0.88204070
C        1.25238758      -0.43817859       2.15221971
C        2.04749422      -1.24805757       2.96576461
C        2.47726408      -2.48660976       2.48901771
C        2.09706807      -2.93903825       1.22498644
C        1.29959396      -2.12894815       0.41473243
O        3.20785574      -3.38601507       3.28508899
C        4.29477866      -2.91583988       4.02256348
O        4.76737940      -1.78774173       3.98450563
C        4.83539877      -4.05602160       4.86938877
H        4.02774104      -4.78663818       5.01406906
C        5.24782827      -3.54404863       6.25357311
C        5.84533720      -4.66222954       7.10222322
C        7.01963162      -5.33013417       6.39286216
C        6.62486626      -5.84630137       5.00285640
H        5.89262933      -6.65273930       5.14504022
C        6.00451573      -4.73459410       4.14923442
C        7.83116497      -6.44018915       4.29080622
O        8.99599123      -6.15717134       4.52959336
O        7.37771733      -7.34844695       3.33159508
C        8.31410698      -8.02292542       2.52790587
C        8.08503456      -9.38323408       2.31529109
C        8.94019181     -10.10411394       1.48000073
C       10.00752517      -9.45481353       0.85840865
C       10.22439833      -8.09100433       1.05971369
C        9.36715438      -7.36687990       1.89107103
H        0.92362395       0.53048590       2.51950696
H        2.31994420      -0.90351112       3.95912121
H        2.41363055      -3.91619120       0.87201202
H        1.00408650      -2.47878185      -0.57082722
H        4.37962276      -3.11458445       6.76807815
H        5.98210651      -2.73382100       6.15620044
H        6.17800612      -4.25748126       8.06459343
H        5.07371603      -5.41089785       7.31962276
H        7.84339981      -4.60929936       6.30913491
H        7.39485751      -6.15904665       7.00549963
H        6.77051484      -3.98978358       3.89274629
H        5.65986050      -5.14545731       3.19137337
H        7.24780903      -9.88177683       2.79516600
H        8.76579844     -11.16443458       1.31735573
H       11.05326149      -7.58308583       0.57358098
H        9.53544219      -6.30335115       2.03415384
C       10.88759585     -10.19703050      -0.00657087
C       11.62465503     -10.81863722      -0.73099121
Br      12.81641741     -11.82372271      -1.90231764
