174
Properties=species:S:1:pos:R:3 pbc="F F F"
C        0.91330964       6.92678694      -8.32225945
C        1.40306309       5.78382058      -7.43684927
H        2.31985487       5.37158463      -7.87683597
C        1.73593071       6.31210587      -6.02307805
N        2.25898788       5.28817900      -5.13282269
C        1.44312690       4.63527942      -4.23117763
O        0.25096903       4.89595029      -4.10463354
C        2.05379701       3.56550928      -3.39683725
C        3.42537770       3.35236598      -3.30991537
N        4.00277512       2.40767044      -2.52282749
C        3.16729074       1.64621039      -1.77793433
C        1.78865243       1.78865243      -1.78865243
C        1.22317022       2.76012314      -2.60913072
N        0.40393944       4.71853426      -7.42403396
C        0.75377968       3.39887355      -7.22444762
O        1.90736022       3.00897753      -7.07768672
C       -0.36859337       2.43690184      -7.17301902
C       -0.23972061       1.28512566      -6.40631303
N       -1.20442570       0.33522286      -6.30661461
C       -2.33555306       0.54230887      -7.02334599
C       -2.54149903       1.65238177      -7.82988172
C       -1.54329695       2.61836951      -7.90846203
H       -0.01092888       7.36534087      -7.92945769
H        0.70280586       6.56869237      -9.33599747
H        1.66562960       7.71909689      -8.39204445
H        0.84930282       6.76911634      -5.56879421
H        2.51058726       7.08384428      -6.09253089
H        3.10456156       4.82757793      -5.44354876
H        4.14410499       3.95023304      -3.86026880
H        3.65828505       0.90508980      -1.15332652
H        0.14507894       2.90208483      -2.63074701
H       -0.54388312       4.98705745      -7.18650041
H        0.66222248       1.08655354      -5.83201238
H       -3.08498334      -0.23868279      -6.92938395
H       -1.66706397       3.48083890      -8.55619057
C       -3.75947427       1.79978719      -8.58381008
C       -4.77952853       1.92323923      -9.21522508
Br      -6.42887000       2.12285073     -10.23616972
C       -2.87333039      -9.92470987      -3.36431576
C       -2.62161153      -8.43309560      -3.56902581
H       -2.72352421      -8.20686314      -4.63788811
C       -3.67177254      -7.60576057      -2.79358151
N       -3.52858711      -6.17080650      -2.98059596
C       -2.86008328      -5.38963595      -2.05986472
O       -2.37967663      -5.84499694      -1.02687929
C       -2.71736204      -3.93934684      -2.35943467
C       -3.40996914      -3.29731782      -3.38037209
N       -3.32326460      -1.96728137      -3.64272708
C       -2.51210851      -1.24227824      -2.83704871
C       -1.78865243      -1.78865243      -1.78865243
C       -1.89107412      -3.15518763      -1.54616234
N       -1.24974665      -8.11553894      -3.18122207
C       -0.55966214      -7.06574332      -3.75169540
O       -1.01241158      -6.34600527      -4.63560762
C        0.79763972      -6.82224442      -3.21672279
C        1.31055265      -5.53083492      -3.23143580
N        2.54891084      -5.20740647      -2.77891615
C        3.30934275      -6.22720661      -2.31223794
C        2.88608913      -7.54815586      -2.27869773
C        1.60900303      -7.85474284      -2.73779479
H       -2.77069046     -10.20362090      -2.30955832
H       -2.15230181     -10.52105911      -3.93413479
H       -3.87935388     -10.20191479      -3.69550228
H       -3.62532791      -7.83838374      -1.72350173
H       -4.67621648      -7.86308024      -3.14766571
H       -3.59507858      -5.84457982      -3.93602985
H       -4.09570565      -3.82069905      -4.03820213
H       -2.46916087      -0.18113653      -3.06640396
H       -1.34333324      -3.61040150      -0.72417604
H       -0.95763245      -8.41409162      -2.25795067
H        0.72773109      -4.69563069      -3.61288880
H        4.29741273      -5.93814037      -1.96499018
H        1.26542960      -8.88455401      -2.75084109
C        3.75430094      -8.58803962      -1.79038432
C        4.48142834      -9.45894228      -1.38142183
Br       5.65713184     -10.86711821      -0.72016408
C       -2.67269370       9.90281531       3.58684701
C       -2.47341973       8.39841218       3.75190104
H       -2.61597276       8.14285570       4.80944700
C       -3.52339980       7.62886431       2.91885052
N       -3.43025731       6.18504136       3.06469090
C       -2.75723038       5.41171234       2.14064123
O       -2.23066125       5.88310487       1.13778674
C       -2.66858144       3.94913345       2.39842865
C       -3.41248650       3.29833446       3.37683809
N       -3.37493651       1.95880397       3.59953257
C       -2.56131259       1.23354931       2.79657357
C       -1.78865243       1.78865243       1.78865243
C       -1.84141367       3.16453435       1.58647606
N       -1.10035637       8.04966532       3.39648598
C       -0.46116558       6.96157555       3.95435972
O       -0.96349440       6.22975779       4.80077229
C        0.90427356       6.69178672       3.45381433
C        1.37663441       5.38495800       3.44339448
N        2.61818735       5.03655125       3.01904787
C        3.42390315       6.04561854       2.60838641
C        3.04261558       7.37969992       2.60368013
C        1.76164802       7.71230471       3.03287790
H       -2.52824531      10.21054384       2.54508053
H       -1.95210454      10.45831430       4.19707686
H       -3.67971713      10.20141508       3.89563873
H       -3.43602656       7.89259685       1.85858996
H       -4.53017897       7.90684623       3.24993722
H       -3.53690161       5.83194468       4.00684195
H       -4.10231755       3.82272874       4.02956054
H       -2.55819023       0.16504809       2.99346304
H       -1.25425325       3.62718206       0.79647547
H       -0.77017384       8.36699331       2.49250759
H        0.75671084       4.55730300       3.78019625
H        4.41313482       5.73622911       2.28262353
H        1.44956494       8.75158245       3.06794799
C        3.95730660       8.40608592       2.17534369
C        4.72336034       9.26568419       1.81661191
Br       5.96200443      10.65558190       1.23657298
C        0.87417107      -8.11634216       7.17184279
C        1.27589800      -6.76780350       6.58003144
H        2.02143301      -6.30676756       7.24007489
C        1.91555606      -6.96812980       5.18742877
N        2.37231571      -5.72906736       4.57860650
C        1.59981329      -5.05554205       3.65422861
O        0.51048004      -5.46998269       3.27109013
C        2.12448070      -3.76872094       3.12294191
C        3.42980678      -3.33321778       3.32463449
N        3.93792973      -2.18166046       2.81368286
C        3.10205828      -1.43473082       2.05464637
C        1.78865243      -1.78865243       1.78865243
C        1.29185708      -2.97050863       2.33005837
N        0.11168433      -5.88641027       6.54841306
C        0.23871775      -4.51458419       6.62379892
O        1.30913643      -3.93028899       6.75459905
C       -1.02007041      -3.74544328       6.51595461
C       -0.98861701      -2.46619081       5.97414427
N       -2.08467392      -1.67541925       5.84666645
C       -3.25537342      -2.18395216       6.30152305
C       -3.37549616      -3.44202431       6.87423632
C       -2.24068852      -4.23931900       6.98490411
H        0.11894958      -8.61277917       6.55214093
H        0.44667484      -7.98843119       8.17238968
H        1.73966590      -8.78156705       7.25553799
H        1.20977195      -7.46530809       4.51213333
H        2.79898606      -7.60986563       5.27811074
H        3.05984531      -5.20828594       5.10755700
H        4.15233822      -3.90358581       3.89868280
H        3.53869151      -0.52411642       1.65389344
H        0.26836559      -3.27938744       2.13015775
H       -0.72185956      -6.25012395       6.10141036
H       -0.06085677      -2.02772031       5.61392486
H       -4.11222820      -1.52480426       6.19314175
H       -2.30211249      -5.21504914       7.45702886
C       -4.64725987      -3.91295873       7.35842414
C       -5.71236197      -4.30736630       7.76393145
Br      -7.43454199      -4.94508998       8.41960246
C       -0.00445707       0.01189536      -1.78238275
H       -0.66409135       0.67374010      -2.43557963
H        0.65740317      -0.63156657      -2.45157240
C       -0.90989263      -0.90692880      -0.91072765
C        0.90977584       0.90977584      -0.90977584
C       -0.00465871       1.77757030       0.00794375
H       -0.66225468       2.44313916      -0.64384735
H        0.64322798       2.43503045       0.67728295
C       -1.78241447       0.00034974      -0.00472694
H       -2.45427497      -0.65498947       0.64260836
H       -2.43311707       0.67328779      -0.65473579
C       -0.91132561       0.90220522       0.91563759
C       -0.01476271      -0.02253852       1.78660255
H       -0.67934791      -0.69751639       2.42135241
H        0.63392994       0.61504881       2.47327442
C        0.01484550      -1.77751727      -0.01636693
H        0.67870853      -2.42144646      -0.68295456
H       -0.62264859      -2.45592969       0.64226336
C        1.78714474       0.01002794       0.00389507
H        2.44202412       0.67113390       0.66197326
H        2.45385902      -0.65136977      -0.64189061
C        0.91606151      -0.90478549       0.90901405
