166
Properties=species:S:1:pos:R:3 pbc="F F F"
C        0.91330964       6.92678694      -8.32225945
C        1.40306309       5.78382058      -7.43684927
H        2.31985487       5.37158463      -7.87683597
C        1.73593071       6.31210587      -6.02307805
N        2.25898788       5.28817900      -5.13282269
C        1.44312690       4.63527942      -4.23117763
O        0.25096903       4.89595029      -4.10463354
C        2.05379701       3.56550928      -3.39683725
C        3.42537770       3.35236598      -3.30991537
N        4.00277512       2.40767044      -2.52282749
C        3.16729074       1.64621039      -1.77793433
C        1.78865243       1.78865243      -1.78865243
C        1.22317022       2.76012314      -2.60913072
N        0.40393944       4.71853426      -7.42403396
C        0.75377968       3.39887355      -7.22444762
O        1.90736022       3.00897753      -7.07768672
C       -0.36859337       2.43690184      -7.17301902
C       -0.23972061       1.28512566      -6.40631303
N       -1.20442570       0.33522286      -6.30661461
C       -2.33555306       0.54230887      -7.02334599
C       -2.54149903       1.65238177      -7.82988172
Br      -4.13614079       1.84537324      -8.81696718
C       -1.54329695       2.61836951      -7.90846203
H       -0.01092888       7.36534087      -7.92945769
H        0.70280586       6.56869237      -9.33599747
H        1.66562960       7.71909689      -8.39204445
H        0.84930282       6.76911634      -5.56879421
H        2.51058726       7.08384428      -6.09253089
H        3.10456156       4.82757793      -5.44354876
H        4.14410499       3.95023304      -3.86026880
H        3.65828505       0.90508980      -1.15332652
H        0.14507894       2.90208483      -2.63074701
H       -0.54388312       4.98705745      -7.18650041
H        0.66222248       1.08655354      -5.83201238
H       -3.08498334      -0.23868279      -6.92938395
H       -1.66706397       3.48083890      -8.55619057
C       -3.70581096      -9.88605340      -2.57049166
C       -3.24714664      -8.46953158      -2.90705472
H       -3.19987175      -8.36964328      -3.99876043
C       -4.26477521      -7.43922483      -2.36711459
N       -3.92220247      -6.06421881      -2.69356829
C       -3.26766679      -5.25291554      -1.78900162
O       -2.96666646      -5.62541750      -0.65946890
C       -2.91106250      -3.87690384      -2.22817721
C       -3.39909694      -3.29519821      -3.39336389
N       -3.11699538      -2.02679299      -3.78948468
C       -2.31606859      -1.30125199      -2.97411488
C       -1.78865243      -1.78865243      -1.78865243
C       -2.08862324      -3.09378230      -1.41001854
N       -1.89813738      -8.26078117      -2.38758911
C       -1.02213102      -7.37472372      -2.98024612
O       -1.27923619      -6.72593879      -3.98884949
C        0.28678214      -7.21883311      -2.30927652
C        0.95652778      -6.00490276      -2.40334309
N        2.16744944      -5.76732366      -1.83753755
C        2.73665532      -6.79872970      -1.16802741
C        2.14947413      -8.04941472      -1.04082388
Br       3.02734271      -9.43789141      -0.11565093
C        0.90322927      -8.26689838      -1.61986549
H       -3.75742355     -10.03972589      -1.48672024
H       -3.00650689     -10.62606445      -2.97492437
H       -4.69542993     -10.08872528      -2.99261574
H       -4.36766807      -7.53907020      -1.28047511
H       -5.24777994      -7.62535214      -2.81383034
H       -3.84008568      -5.85544048      -3.68016209
H       -4.06751843      -3.81738052      -4.06970789
H       -2.11461769      -0.28887655      -3.31320713
H       -1.69768483      -3.50020254      -0.48002340
H       -1.75077405      -8.47150285      -1.40739784
H        0.52966506      -5.16455825      -2.94589521
H        3.70827680      -6.58034113      -0.73365348
H        0.43642530      -9.24534523      -1.56104557
C       -2.57960678       9.88771153       3.69503771
C       -2.40507205       8.37821619       3.84044470
H       -2.56722280       8.10923308       4.89181959
C       -3.45369710       7.63688444       2.98053308
N       -3.38408751       6.18983078       3.10607128
C       -2.70877878       5.42023168       2.18057349
O       -2.16032893       5.89843810       1.19278582
C       -2.64561707       3.95284009       2.41768638
C       -3.41363813       3.29888629       3.37513463
N       -3.39922048       1.95580025       3.57825232
C       -2.58445119       1.23036849       2.77661579
C       -1.78865243       1.78865243       1.78865243
C       -1.81804865       3.16800683       1.60636860
N       -1.03213559       8.01421139       3.50016068
C       -0.41752148       6.90853993       4.05103944
O       -0.94323761       6.17191325       4.87887362
C        0.95113446       6.62573359       3.56672836
C        1.40424452       5.31226664       3.54369595
N        2.64673812       4.95159160       3.13255829
C        3.47333639       5.95442183       2.74901635
C        3.11190874       7.29399347       2.75867974
Br       4.33746448       8.62782769       2.23583641
C        1.82970312       7.63938930       3.17384842
H       -2.41502706      10.20859366       2.66024896
H       -1.86012077      10.42327116       4.32410378
H       -3.58662610      10.19678137       3.99336348
H       -3.34655247       7.91490916       1.92575174
H       -4.46111099       7.92500804       3.30084340
H       -3.51004819       5.82449516       4.04114490
H       -4.10535642       3.82386532       4.02538509
H       -2.60006346       0.15914898       2.95748892
H       -1.21234118       3.63341806       0.83215154
H       -0.68378679       8.33987117       2.60601678
H        0.76718416       4.48911408       3.85885849
H        4.46266296       5.63508213       2.43329864
H        1.53251394       8.68259756       3.21988188
C        1.02822613      -6.44985384       8.68427605
C        1.52822707      -5.39747500       7.69803087
H        2.49520808      -5.01969749       8.05336989
C        1.73539857      -6.03174846       6.30396760
N        2.26097788      -5.10039842       5.31861327
C        1.42956860      -4.45209133       4.42792402
O        0.21800015      -4.64181598       4.39173673
C        2.04885447      -3.47736908       3.48991999
C        3.42232126      -3.35971583       3.30562196
N        4.00389916      -2.50451289       2.42486100
C        3.16978958      -1.73721928       1.68442661
C        1.78865243      -1.78865243       1.78865243
C        1.21947996      -2.66925840       2.70368572
N        0.59738156      -4.27216168       7.67696442
C        1.01349411      -2.99275951       7.37084723
O        2.17673966      -2.68852056       7.12876425
C       -0.04893834      -1.96468155       7.32558428
C        0.09989353      -0.87276941       6.47905513
N       -0.80938250       0.13006903       6.37686330
C       -1.90197018       0.04128851       7.17336048
C       -2.12242402      -1.00163289       8.06155559
Br      -3.65820494      -1.02966234       9.15474223
C       -1.18214345      -2.02396441       8.14171364
H        0.05529231      -6.85047482       8.37810255
H        0.90647358      -6.01751324       9.68350889
H        1.73365121      -7.28372623       8.75939351
H        0.79479279      -6.45695993       5.93546065
H        2.46430683      -6.84660652       6.37604908
H        3.15156378      -4.67771249       5.54641198
H        4.13747113      -3.96835840       3.84877731
H        3.66344708      -1.06921841       0.98403588
H        0.13842767      -2.73912018       2.80036293
H       -0.37853642      -4.49240431       7.51580685
H        0.97296841      -0.76883647       5.83898352
H       -2.60678354       0.86222174       7.07472309
H       -1.31595358      -2.83533153       8.85058756
C       -0.00445707       0.01189536      -1.78238275
H       -0.66409135       0.67374010      -2.43557963
H        0.65740317      -0.63156657      -2.45157240
C       -0.90989263      -0.90692880      -0.91072765
C        0.90977584       0.90977584      -0.90977584
C       -0.00465871       1.77757030       0.00794375
H       -0.66225468       2.44313916      -0.64384735
H        0.64322798       2.43503045       0.67728295
C       -1.78241447       0.00034974      -0.00472694
H       -2.45427497      -0.65498947       0.64260836
H       -2.43311707       0.67328779      -0.65473579
C       -0.91132561       0.90220522       0.91563759
C       -0.01476271      -0.02253852       1.78660255
H       -0.67934791      -0.69751639       2.42135241
H        0.63392994       0.61504881       2.47327442
C        0.01484550      -1.77751727      -0.01636693
H        0.67870853      -2.42144646      -0.68295456
H       -0.62264859      -2.45592969       0.64226336
C        1.78714474       0.01002794       0.00389507
H        2.44202412       0.67113390       0.66197326
H        2.45385902      -0.65136977      -0.64189061
C        0.91606151      -0.90478549       0.90901405
