154
Properties=species:S:1:pos:R:3 pbc="F F F"
C        1.79090132       1.79090132      -1.79090132
C        2.52408902       1.22225490      -2.82788086
C        3.33324526       2.02997352      -3.63564412
C        3.40125150       3.41687732      -3.43084916
C        2.65485196       3.96614315      -2.37793894
C        1.85721551       3.15956127      -1.55795987
N        4.21290472       4.25623068      -4.26273539
C        5.30688543       3.66535809      -5.02678684
C        6.47603466       4.63032069      -5.25257915
O        7.61110152       4.17586824      -5.39990166
N        6.09952603       5.96874280      -5.44132532
C        4.67726376       6.23511384      -5.64997066
C        3.76753523       5.52541626      -4.65276890
O        2.67130657       6.00965915      -4.37205781
C        7.06003550       6.99039743      -5.76549489
C        8.39115264       6.90423830      -5.32996014
C        9.33100489       7.89437498      -5.64604160
C        8.94828669       8.99621370      -6.40025985
Br      10.21375155      10.33027728      -6.83659569
C        7.63601662       9.11824080      -6.83679088
C        6.70083246       8.12314081      -6.51911662
H        2.46728563       0.15381170      -3.02392464
H        3.86237788       1.54774844      -4.45147562
H        2.69405743       5.03158139      -2.16104771
H        1.29477590       3.61501677      -0.74747733
H        4.93048860       3.33664311      -6.00139438
H        5.72141495       2.81677516      -4.47231451
H        4.47099902       7.30166341      -5.51079099
H        4.40159154       5.92341919      -6.66339817
H        8.73170618       6.07432036      -4.71495838
H       10.35460926       7.78861600      -5.29490836
H        7.32558782       9.97331591      -7.42981700
H        5.69947623       8.25623231      -6.91753662
C       -1.79090132      -1.79090132      -1.79090132
C       -1.57967940      -3.16574624      -1.82879913
C       -2.38698990      -3.97416983      -2.63770317
C       -3.42802815      -3.42126974      -3.39968011
C       -3.61963168      -2.03278608      -3.34651628
C       -2.80415870      -1.21918809      -2.55138986
N       -4.27217636      -4.24153078      -4.21816365
C       -3.80802691      -5.56300799      -4.62799546
C       -4.36875466      -6.00646492      -5.98371491
O       -3.71964667      -6.79208136      -6.67514339
N       -5.68475813      -5.58970979      -6.23512623
C       -6.42804727      -5.02362258      -5.11067842
C       -5.64448226      -3.98128544      -4.31995269
O       -6.24488945      -3.09359776      -3.71453632
C       -6.40068976      -6.00137782      -7.41386025
C       -5.72947249      -6.28218424      -8.61369436
C       -6.42152886      -6.68691542      -9.76297719
C       -7.80476008      -6.80935995      -9.73064022
Br      -8.74231678      -7.36300592     -11.27530183
C       -8.50072581      -6.52743857      -8.56288394
C       -7.80239852      -6.12502804      -7.41566333
H       -0.79677767      -3.62155390      -1.22669041
H       -2.20598262      -5.04405602      -2.61156331
H       -4.39559428      -1.55231777      -3.93877447
H       -2.97526475      -0.14627738      -2.53572787
H       -4.09889389      -6.29889990      -3.87073230
H       -2.71925589      -5.54634597      -4.74490277
H       -7.31425679      -4.49360695      -5.47558968
H       -6.72109040      -5.83359046      -4.43372804
H       -4.65021817      -6.17512302      -8.69564373
H       -5.86490383      -6.90111401     -10.67211577
H       -9.58176351      -6.62266335      -8.52429388
H       -8.39714098      -5.95243892      -6.52366526
C       -1.79090132       1.79090132       1.79090132
C       -1.47255288       3.13388933       1.96778257
C       -2.27991414       3.94217495       2.77677381
C       -3.42606234       3.42362894       3.39928671
C       -3.72469151       2.06660397       3.20763857
C       -2.91087195       1.25133437       2.41253033
N       -4.26987870       4.24615534       4.21583675
C       -3.73781185       5.48340435       4.77781416
C       -4.37866867       5.86293551       6.11733031
O       -3.73165388       6.52886320       6.92635434
N       -5.74136060       5.54555536       6.22267819
C       -6.42554172       5.14120272       4.99560382
C       -5.66242722       4.10133468       4.18195849
O       -6.27704889       3.32274750       3.45322715
C       -6.52316930       5.92172881       7.37102972
C       -5.94047333       6.04313453       8.64174323
C       -6.69653156       6.41270205       9.76218786
C       -8.05683545       6.65968188       9.62824292
Br      -9.07956936       7.16665507      11.13440009
C       -8.66703801       6.53675242       8.38725788
C       -7.90474853       6.16876392       7.26957744
H       -0.60476370       3.56593882       1.47431945
H       -2.01072512       4.99032676       2.86055007
H       -4.58672715       1.61026020       3.68969918
H       -3.16676750       0.20270737       2.28779512
H       -3.89937091       6.30146087       4.06769432
H       -2.66871027       5.36068485       4.98110951
H       -7.38087623       4.66398501       5.23859218
H       -6.59035449       6.02644430       4.37161011
H       -4.88508203       5.83436793       8.80153495
H       -6.20721470       6.50184538      10.72907353
H       -9.72901330       6.73039399       8.26931344
H       -8.43003610       6.12291394       6.32029512
C        1.79090132      -1.79090132       1.79090132
C        2.93376318      -1.25969719       2.38076441
C        3.74281229      -2.06787051       3.18818009
C        3.40709587      -3.40847764       3.43340448
C        2.25161728      -3.92147306       2.82584370
C        1.44888744      -3.12099088       2.00485833
N        4.21867439      -4.24064976       4.27254664
C        5.60878168      -3.87116412       4.51908456
C        6.52138152      -5.07899679       4.75855618
O        7.71683028      -4.99518459       4.47485655
N        5.91773214      -6.13721061       5.45465140
C        4.61958763      -5.87074800       6.07201263
C        3.63370546      -5.16505326       5.14696167
O        2.42350598      -5.32060885       5.30890871
C        6.65762503      -7.30587405       5.85242875
C        7.75578709      -7.76206347       5.10750052
C        8.48168893      -8.89712154       5.49261101
C        8.11198638      -9.60151742       6.63125644
Br       9.09264311     -11.12806471       7.15991671
C        7.02282227      -9.18402555       7.38420050
C        6.30186510      -8.04631595       6.99490884
H        3.20074277      -0.21633844       2.22794076
H        4.60661879      -1.60261044       3.65237272
H        1.96249795      -4.96136987       2.96281870
H        0.56272411      -3.54968401       1.54486188
H        5.65832437      -3.21532609       5.39487563
H        6.01170065      -3.36113557       3.63766840
H        4.13064779      -6.81361476       6.33919086
H        4.76983313      -5.25381342       6.96476236
H        8.06692801      -7.25964971       4.19440720
H        9.33035344      -9.21563713       4.89214305
H        6.72612832      -9.72447629       8.27811613
H        5.48233822      -7.74871495       7.64219200
C       -0.00445707       0.01189536      -1.78238275
H       -0.66409135       0.67374010      -2.43557963
H        0.65740317      -0.63156657      -2.45157240
C       -0.90989263      -0.90692880      -0.91072765
C        0.90977584       0.90977584      -0.90977584
C       -0.00465871       1.77757030       0.00794375
H       -0.66225468       2.44313916      -0.64384735
H        0.64322798       2.43503045       0.67728295
C       -1.78241447       0.00034974      -0.00472694
H       -2.45427497      -0.65498947       0.64260836
H       -2.43311707       0.67328779      -0.65473579
C       -0.91132561       0.90220522       0.91563759
C       -0.01476271      -0.02253852       1.78660255
H       -0.67934791      -0.69751639       2.42135241
H        0.63392994       0.61504881       2.47327442
C        0.01484550      -1.77751727      -0.01636693
H        0.67870853      -2.42144646      -0.68295456
H       -0.62264859      -2.45592969       0.64226336
C        1.78714474       0.01002794       0.00389507
H        2.44202412       0.67113390       0.66197326
H        2.45385902      -0.65136977      -0.64189061
C        0.91606151      -0.90478549       0.90901405
