145
Properties=species:S:1:pos:R:3 pbc="F F F"
C        0.00000000       0.00000000       0.00000000
C        0.87918147       0.87918147      -0.87918147
C        0.55238967       1.10436093      -2.20830215
N        1.28497904       1.88754034      -3.03498105
C        2.38996365       2.46962274      -2.50227211
C        2.80453678       2.28493184      -1.18781116
C        2.02236545       1.47846486      -0.35628443
C        4.02654757       2.97910590      -0.71755688
O        4.38026637       4.02783930      -1.24368566
N        4.72484848       2.36638105       0.30278197
C        5.89992771       2.96551318       0.90834960
C        7.21169413       2.51953953       0.26385876
C        7.43255756       3.04440589      -1.15347547
N        7.36400406       4.48856119      -1.22834562
C        8.43827582       5.28655396      -0.90576003
O        9.53698170       4.84751657      -0.58550679
C        8.22725260       6.74774118      -0.97155549
C        9.31249075       7.55853914      -1.28963888
N        9.24541422       8.91094242      -1.38067666
C        8.04201313       9.47351953      -1.11995187
C        6.91239532       8.74509116      -0.77240008
Br       5.28571371       9.62107398      -0.39408511
C        7.00121225       7.35742877      -0.69685716
H       -0.33024538       0.66025290      -2.66106835
H        2.94900697       3.10058901      -3.18970655
H        2.27409826       1.34051392       0.69021590
H        4.47218724       1.43475547       0.60405434
H        5.89311114       2.65123035       1.95793099
H        5.80013282       4.05615836       0.89519097
H        7.25997947       1.42417171       0.24539581
H        8.03566506       2.86409766       0.90091280
H        6.68621755       2.64170856      -1.84492296
H        8.41681628       2.72070535      -1.51097038
H        6.46369508       4.88117686      -1.49070320
H       10.29270163       7.13294627      -1.49431309
H        8.01978074      10.55716261      -1.19667832
H        6.13650859       6.77036425      -0.40322077
C       -0.87918147      -0.87918147      -0.87918147
C       -2.21186649      -1.09350136      -0.55968490
N       -3.04684363      -1.85139836      -1.30925844
C       -2.52029234      -2.41472011      -2.42684606
C       -1.19245937      -2.27077006      -2.81405036
C       -0.35752365      -1.47468930      -2.02490179
C       -0.73382687      -2.92953573      -4.05984774
O       -1.52877289      -3.15925758      -4.96376086
N        0.60101670      -3.27501957      -4.11444469
C        1.20300548      -3.86324796      -5.29684881
C        1.20641443      -5.39124529      -5.28254404
C       -0.17356964      -6.02990724      -5.42696205
N       -0.86556336      -5.59385815      -6.62148937
C       -0.61969522      -6.15811410      -7.85278048
O        0.15194139      -7.09431668      -8.02762977
C       -1.35133899      -5.59064619      -9.00456410
C       -1.65988806      -6.43049258     -10.07028813
N       -2.32676390      -6.02847695     -11.18179245
C       -2.67934679      -4.72247564     -11.23366210
C       -2.39263791      -3.80867578     -10.22857287
Br      -2.89557463      -1.99972907     -10.40556910
C       -1.71811971      -4.24592496      -9.09145351
H       -2.66472515      -0.64911164       0.32276093
H       -3.22026695      -3.00747994      -3.01155564
H        0.67363976      -1.29001103      -2.30802502
H        1.18145736      -3.19394236      -3.29040338
H        2.23793743      -3.50433235      -5.32001560
H        0.70420755      -3.47428481      -6.19102294
H        1.66537946      -5.75046812      -4.35366671
H        1.84341498      -5.73564043      -6.10662446
H       -0.81100738      -5.79176263      -4.57007905
H       -0.06695180      -7.12022952      -5.46131068
H       -1.51164045      -4.81738685      -6.50654783
H       -1.37981155      -7.48180071     -10.05834872
H       -3.20803965      -4.42910236     -12.13647965
H       -1.46246425      -3.54314311      -8.30448626
C       -0.87918147       0.87918147       0.87918147
C       -1.89225165       1.64774667       0.32505442
N       -2.71575173       2.43639144       1.05535727
C       -2.51329260       2.45067522       2.39789069
C       -1.51122099       1.72889320       3.03716560
C       -0.68308492       0.91659665       2.25743318
C       -1.39182175       1.81984205       4.51154655
O       -2.37511147       2.08257845       5.19410140
N       -0.13210841       1.61867385       5.03766530
C        0.12007115       1.61022573       6.46693671
C        0.52838780       2.97434441       7.02141829
C       -0.58769888       4.01714582       7.02559423
N       -1.76123419       3.57236567       7.74731102
C       -1.85079751       3.66175064       9.11804165
O       -0.98291290       4.16425608       9.82283608
C       -3.07822440       3.12574451       9.74258037
C       -3.52833734       3.70954401      10.92278743
N       -4.63980904       3.30751482      11.58970943
C       -5.31509572       2.26080706      11.05958176
C       -4.92627727       1.60332846       9.90028082
Br      -5.91357873       0.13140643       9.25588764
C       -3.78927838       2.04062775       9.22559206
H       -2.08506199       1.65058086      -0.74456698
H       -3.19861053       3.08528039       2.95541161
H        0.08253216       0.29572304       2.71120541
H        0.66933645       1.54699502       4.42522980
H        0.93978735       0.90073559       6.62546227
H       -0.75765413       1.21442112       6.98902495
H        1.37569434       3.36749441       6.44695530
H        0.88074912       2.82943023       8.05016881
H       -0.90047914       4.26549120       6.00687873
H       -0.22001123       4.94025192       7.48822885
H       -2.49762155       3.14998174       7.18797184
H       -2.99913258       4.54570952      11.37511888
H       -6.19764260       1.95900274      11.61697632
H       -3.45373987       1.52560555       8.33074819
C        0.87918147      -0.87918147       0.87918147
C        0.34822315      -1.53927875       1.97755084
N        1.07468839      -2.34588981       2.78692223
C        2.38814355      -2.49630792       2.47740703
C        3.00937042      -1.85902058       1.40888879
C        2.23105010      -1.04011304       0.58595161
C        4.45035609      -2.10631451       1.16653974
O        4.96441957      -3.15786898       1.52950278
N        5.15029973      -1.09135861       0.54678922
C        6.54993861      -1.22163966       0.18551302
C        7.50664879      -0.70266386       1.25806225
C        7.55298339      -1.54809305       2.52936248
N        7.88401762      -2.93235286       2.26454039
C        9.18444846      -3.35085703       2.09528431
O       10.15481391      -2.61005123       2.20513991
C        9.38933369      -4.77952273       1.77769286
C       10.56382574      -5.39007790       2.20676514
N       10.86657487      -6.69297950       1.97747893
C        9.96047202      -7.40645687       1.26855564
C        8.77445003      -6.87407697       0.78135956
Br       7.58819365      -7.93897012      -0.22629097
C        8.47856827      -5.53793352       1.03899640
H       -0.70094284      -1.44634779       2.24567091
H        2.93965322      -3.15905570       3.14059362
H        2.65511493      -0.55831917      -0.28903782
H        4.71484729      -0.19110660       0.39693449
H        6.68311891      -0.63080721      -0.72751561
H        6.76458441      -2.26517374      -0.06865795
H        7.23567762       0.32502939       1.52810714
H        8.51292115      -0.66298457       0.82294420
H        6.59073980      -1.53205657       3.05005269
H        8.30146268      -1.13297377       3.21405556
H        7.09824783      -3.57003839       2.16728892
H       11.31285539      -4.83720555       2.76990005
H       10.23164668      -8.44463468       1.09734030
H        7.56831687      -5.09504398       0.64673276
