153
Properties=species:S:1:pos:R:3 pbc="F F F"
C        0.00000000       0.00000000       0.00000000
C        0.87918147       0.87918147      -0.87918147
C        0.55238967       1.10436093      -2.20830215
N        1.28497904       1.88754034      -3.03498105
C        2.38996365       2.46962274      -2.50227211
C        2.80453678       2.28493184      -1.18781116
C        2.02236545       1.47846486      -0.35628443
C        4.02654757       2.97910590      -0.71755688
O        4.38026637       4.02783930      -1.24368566
N        4.72484848       2.36638105       0.30278197
C        5.89992771       2.96551318       0.90834960
C        7.21169413       2.51953953       0.26385876
C        7.43255756       3.04440589      -1.15347547
N        7.36400406       4.48856119      -1.22834562
C        8.43827582       5.28655396      -0.90576003
O        9.53698170       4.84751657      -0.58550679
C        8.22725260       6.74774118      -0.97155549
C        9.31249075       7.55853914      -1.28963888
N        9.24541422       8.91094242      -1.38067666
C        8.04201313       9.47351953      -1.11995187
C        6.91239532       8.74509116      -0.77240008
C        7.00121225       7.35742877      -0.69685716
H       -0.33024538       0.66025290      -2.66106835
H        2.94900697       3.10058901      -3.18970655
H        2.27409826       1.34051392       0.69021590
H        4.47218724       1.43475547       0.60405434
H        5.89311114       2.65123035       1.95793099
H        5.80013282       4.05615836       0.89519097
H        7.25997947       1.42417171       0.24539581
H        8.03566506       2.86409766       0.90091280
H        6.68621755       2.64170856      -1.84492296
H        8.41681628       2.72070535      -1.51097038
H        6.46369508       4.88117686      -1.49070320
H       10.29270163       7.13294627      -1.49431309
H        8.01978074      10.55716261      -1.19667832
H        6.13650859       6.77036425      -0.40322077
C        5.67031435       9.41396304      -0.48353112
C        4.63007155       9.97414325      -0.24160337
Br       2.94808690      10.87990726       0.14957334
C       -0.87918147      -0.87918147      -0.87918147
C       -2.19019444      -1.15509164      -0.51976667
N       -3.02475177      -1.91619879      -1.26654987
C       -2.52060480      -2.41826171      -2.42299199
C       -1.21443341      -2.21034670      -2.85249967
C       -0.37981254      -1.41254830      -2.06475391
C       -0.77947901      -2.80562427      -4.13810706
O       -1.59908065      -3.03216136      -5.02054932
N        0.56403020      -3.09829655      -4.25418121
C        1.14197142      -3.62003029      -5.47903242
C        1.20145609      -5.14632101      -5.52250998
C       -0.15886637      -5.83091209      -5.64066046
N       -0.91081950      -5.37814537      -6.79194601
C       -0.69122543      -5.88759611      -8.05176827
O        0.10678588      -6.78705019      -8.28974074
C       -1.48593870      -5.30664035      -9.15397023
C       -1.80373776      -6.11823489     -10.23869612
N       -2.52623865      -5.70152519     -11.30926946
C       -2.92776556      -4.40873170     -11.29898727
C       -2.63675208      -3.52190508     -10.27122940
C       -1.90437239      -3.97444275      -9.17668304
H       -2.62529690      -0.76047052       0.39469156
H       -3.22012854      -3.01535849      -3.00381551
H        0.63254232      -1.17893510      -2.37800351
H        1.17181115      -3.02538827      -3.44931125
H        2.16156236      -3.22172592      -5.52624695
H        0.59599019      -3.21791463      -6.33917577
H        1.70788714      -5.52150117      -4.62514134
H        1.81901457      -5.43626020      -6.38160429
H       -0.77176200      -5.64828638      -4.75280068
H       -0.01405876      -6.91446699      -5.71996625
H       -1.57989747      -4.63128934      -6.62438832
H       -1.48538169      -7.15796854     -10.27661074
H       -3.50045216      -4.10288817     -12.17028133
H       -1.64492739      -3.29158734      -8.37357889
C       -3.07555572      -2.15212259     -10.34013021
C       -3.44305376      -1.00492977     -10.39783464
Br      -4.03726701       0.84998401     -10.49113782
C       -0.87918147       0.87918147       0.87918147
C       -2.13972996       1.27164312       0.45367966
N       -2.97290870       2.03896617       1.19562557
C       -2.52045166       2.42527364       2.41613320
C       -1.26519845       2.09614516       2.91593618
C       -0.43147431       1.29503875       2.13060168
C       -0.88462354       2.57154592       4.26704088
O       -1.74833868       2.79673565       5.10671699
N        0.46366726       2.75886155       4.49325327
C        0.98597966       3.15489213       5.78817882
C        1.14401476       4.66668462       5.94470504
C       -0.17250247       5.43749459       6.02044187
N       -1.03351815       4.96384382       7.08354891
C       -0.87115520       5.37097261       8.38846199
O       -0.03393857       6.19307008       8.74299641
C       -1.77977354       4.77608909       9.39068664
C       -2.11950219       5.53408332      10.50708325
N       -2.94301963       5.09959869      11.49441497
C       -3.42823348       3.84245466      11.36479639
C       -3.12426583       3.00770256      10.29791817
C       -2.28680741       3.47873694       9.28995383
H       -2.53362402       0.97115401      -0.51370216
H       -3.21831797       3.03079130       2.99019326
H        0.53798207       0.96913872       2.49323964
H        1.12128711       2.69654748       3.72762801
H        1.97068516       2.68234422       5.87475145
H        0.35417543       2.73634816       6.57892748
H        1.73732509       5.06374086       5.11233960
H        1.71645984       4.85362886       6.86168090
H       -0.73107941       5.35893564       5.08283402
H        0.03830743       6.50017654       6.18662289
H       -1.73727000       4.27967589       6.81862925
H       -1.73594127       6.54349308      10.64052663
H       -4.08098259       3.52088748      12.17175159
H       -2.01671765       2.83423031       8.45914566
C       -3.65738937       1.67131951      10.23909964
C       -4.10388034       0.55209870      10.18983913
Br      -4.82581847      -1.25758669      10.11018904
C        0.87918147      -0.87918147       0.87918147
C        0.42655782      -1.32696534       2.11152958
N        1.15469436      -2.12245627       2.93034980
C        2.38735208      -2.48398042       2.49052601
C        2.93009866      -2.06725701       1.27992412
C        2.15057755      -1.25429264       0.45224455
C        4.28578885      -2.53330445       0.90411704
O        4.71583580      -3.59404195       1.34191357
N        5.01114729      -1.70247876       0.07482151
C        6.32400597      -2.06192995      -0.42884463
C        7.47111703      -1.55316082       0.44309705
C        7.58776061      -2.24053057       1.80214775
N        7.71379263      -3.67829389       1.68882435
C        8.92076990      -4.28518885       1.42463105
O        9.97794644      -3.67406058       1.31799804
C        8.91033197      -5.75590039       1.28031692
C       10.05123964      -6.46389778       1.64553135
N       10.16386801      -7.81360362       1.55956167
C        9.09247334      -8.47746276       1.06554844
C        7.92313503      -7.85170530       0.65504623
C        7.82501827      -6.46686320       0.76361671
H       -0.55848041      -1.06249118       2.48706510
H        2.94072457      -3.13169588       3.16688209
H        2.50700260      -0.94106550      -0.52367181
H        4.66921340      -0.77593329      -0.14225831
H        6.40205654      -1.60676504      -1.42241107
H        6.37733151      -3.14755683      -0.56378813
H        7.36264074      -0.47365231       0.60246231
H        8.40717591      -1.70118015      -0.10950614
H        6.71314025      -2.03349184       2.42621697
H        8.46548280      -1.85183479       2.33117441
H        6.85213093      -4.21134030       1.77210391
H       10.92945056      -5.95415577       2.03635465
H        9.21321715      -9.55560647       1.00479804
H        6.92916290      -5.95503765       0.42589307
C        6.83210310      -8.62079640       0.11490902
C        5.91836386      -9.26491020      -0.33745589
Br       4.44092479     -10.30638773      -1.06889170
