169
Properties=species:S:1:pos:R:3 pbc="F F F"
C        0.00000000       0.00000000       0.00000000
O        7.11398199       8.46536689      -5.19736690
C        7.37502544       8.04515000      -6.32396879
C        6.71698330       6.79805488      -6.93289535
O        5.71334881       6.17093059      -6.12975150
C        4.51374165       6.94669449      -6.07740585
C        3.41698817       6.32678724      -5.20976166
O        2.31832166       6.86587020      -5.08637869
N        3.80007471       5.13051802      -4.62547703
N        2.92400347       4.43966890      -3.84705314
C        3.35594001       3.32575625      -3.35193921
C        2.49241709       2.48652367      -2.49357125
C        2.99090750       1.27824594      -1.99696515
C        2.18121371       0.47420378      -1.18872403
C        0.88196320       0.88196320      -0.88196320
C        0.38200943       2.08664288      -1.37414105
C        1.18890034       2.89103333      -2.18216793
N        8.30088246       8.70529173      -7.09552218
N        8.70763559       8.26537693      -8.31765588
C        9.71576690       8.92409933      -8.79983377
C       10.34178999       8.58942172     -10.09176902
C        9.71404780       7.74259384     -11.00900732
C       10.35509017       7.42801894     -12.21071486
C       11.61946887       7.95336102     -12.48119718
Br      12.49710641       7.50602057     -14.09453229
C       12.24590660       8.80140396     -11.56805267
C       11.60287714       9.12625108     -10.37147345
H        7.50785188       6.05372156      -7.07683446
H        6.29917363       7.04242265      -7.91611957
H        4.10744513       7.04308658      -7.09036986
H        4.71761588       7.94017652      -5.66728162
H        4.74517015       4.79399370      -4.79365252
H        4.37758402       2.95543399      -3.55087558
H        4.00049713       0.95163357      -2.23073660
H        2.56948216      -0.46558719      -0.80411533
H       -0.62881587       2.40962926      -1.13828251
H        0.79659116       3.83140006      -2.56631195
H        8.73575340       9.51407936      -6.66214248
H       10.17713264       9.76004830      -8.24147164
H        8.73119411       7.32783044     -10.79816473
H        9.86493703       6.77022878     -12.92437238
H       13.23359311       9.20647574     -11.77536907
H       12.10418294       9.77976798      -9.66176975
O       -6.20196129      -5.76952663      -8.80522786
C       -6.84036739      -6.65938860      -8.24438824
C       -6.93319338      -6.79725512      -6.71748504
O       -6.27682728      -5.77625109      -5.96095253
C       -6.97726866      -4.53190260      -6.02867073
C       -6.30001338      -3.40108458      -5.25243911
O       -6.79638546      -2.27704795      -5.19713714
N       -5.12293915      -3.79557288      -4.63755773
N       -4.41689990      -2.91047876      -3.88334685
C       -3.33798459      -3.36320361      -3.33244726
C       -2.49049585      -2.49477655      -2.48723962
C       -1.34415866      -3.03005943      -1.89190049
C       -0.53840291      -2.21934777      -1.08639084
C       -0.88196320      -0.88196320      -0.88196320
C       -2.02337128      -0.34442631      -1.47499577
C       -2.82997620      -1.15263260      -2.27949279
N       -7.51065681      -7.59127331      -8.99976624
N       -8.17324366      -8.65290873      -8.46451601
C       -8.58080935      -9.51185380      -9.34703685
C       -9.28482738     -10.75485862      -8.98329473
C       -9.81551127     -10.94535382      -7.70478387
C      -10.45084824     -12.15064066      -7.39233507
C      -10.54203250     -13.15713108      -8.35486349
Br     -11.37763876     -14.79683467      -7.92318584
C      -10.01568941     -12.96718809      -9.63248573
C       -9.39015344     -11.75963426      -9.95081396
H       -6.44774185      -7.74189861      -6.44876745
H       -7.98454839      -6.85879317      -6.41437429
H       -7.97749371      -4.66247984      -5.60092803
H       -7.06244309      -4.19624515      -7.06638578
H       -4.80861090      -4.75385272      -4.77035275
H       -3.00904915      -4.40943125      -3.46541319
H       -1.06868095      -4.07002288      -2.04416347
H        0.35202787      -2.63693601      -0.62310217
H       -2.29575370       0.69645757      -1.31979979
H       -3.72153941      -0.73133430      -2.74142947
H       -7.41648605      -7.48978998     -10.00569921
H       -8.38943318      -9.36299184     -10.42622755
H       -9.74104119     -10.16463323      -6.95151485
H      -10.86480476     -12.29710147      -6.39763196
H      -10.08108435     -13.75310770     -10.38124587
H       -8.97395311     -11.62553160     -10.94623595
O       -6.40072087       5.61003095       8.76596395
C       -6.94432781       6.57315303       8.22666339
C       -6.92736521       6.81117688       6.70939145
O       -6.28697154       5.79787657       5.92918279
C       -7.06609557       4.60071703       5.87102939
C       -6.41040024       3.47789442       5.06524241
O       -6.97071358       2.39469276       4.90516420
N       -5.17310565       3.83109683       4.55186729
N       -4.47497667       2.94972273       3.78602610
C       -3.33605648       3.36344301       3.33413597
C       -2.49001556       2.49496069       2.48753578
C       -1.27590040       2.98919894       2.00101925
C       -0.47046793       2.17849240       1.19518120
C       -0.88196320       0.88196320       0.88196320
C       -2.09115677       0.38529748       1.36633912
C       -2.89752323       1.19362778       2.17095058
N       -7.60403227       7.49869153       8.99897256
N       -8.16276963       8.63289330       8.49500547
C       -8.57374756       9.46056000       9.40539244
C       -9.17383971      10.76749784       9.08164318
C       -9.60608402      11.07147080       7.78809414
C      -10.14350238      12.33313100       7.51719059
C      -10.23554379      13.28188030       8.53660299
Br     -10.93762012      14.99678803       8.16325113
C       -9.80752951      12.97879909       9.82903462
C       -9.28040072      11.71516443      10.10503651
H       -6.36763643       7.73651703       6.53425444
H       -7.95056431       6.96069167       6.34645986
H       -8.02586473       4.82333066       5.39170619
H       -7.24026484       4.20777889       6.87703029
H       -4.80947587       4.75644783       4.76689268
H       -2.95244245       4.37540489       3.55604625
H       -0.94718724       3.99725829       2.23842177
H        0.47277804       2.56424412       0.81654423
H       -2.41665062      -0.62370130       1.12614660
H       -3.84203750       0.80433979       2.54792588
H       -7.58298671       7.32908670       9.99990184
H       -8.46367050       9.23281157      10.48217050
H       -9.53052521      10.33570406       6.99096001
H      -10.48097509      12.56795766       6.51060544
H       -9.87343056      13.71942331      10.62258405
H       -8.93997532      11.49245239      11.11329296
O        7.52731859      -8.18194150       5.06745569
C        7.59203089      -7.89089744       6.26121589
C        6.70219563      -6.82611819       6.91961971
O        5.72585602      -6.22006218       6.06811269
C        4.65804178      -7.11935207       5.76044814
C        3.59882498      -6.52274854       4.83196354
O        2.60654206      -7.16752825       4.49650024
N        3.88253440      -5.22089277       4.45264259
N        3.02000832      -4.54027420       3.65044298
C        3.35230770      -3.32571142       3.35561634
C        2.49147636      -2.48677851       2.49425716
C        2.87655328      -1.17124904       2.21831627
C        2.06745544      -0.36731109       1.40937499
C        0.88196320      -0.88196320       0.88196320
C        0.49548687      -2.19352617       1.15378032
C        1.30190132      -2.99811277       1.96208751
N        8.50015760      -8.53442580       7.06711296
N        8.69405438      -8.21959019       8.37702383
C        9.71751669      -8.81246841       8.90971490
C       10.13303330      -8.58440216      10.30554527
C        9.29062797      -7.95162493      11.22339605
C        9.73444681      -7.72924289      12.53013427
C       11.01707011      -8.13146376      12.90549320
Br      11.62623953      -7.80627437      14.66514537
C       11.85786834      -8.76614953      11.99134536
C       11.41288088      -8.99956978      10.68815101
H        7.36136659      -6.01910985       7.25793147
H        6.20696796      -7.25033123       7.80041665
H        4.15042502      -7.40071418       6.68976238
H        5.04290984      -8.01612781       5.26603637
H        4.74601985      -4.79978795       4.78700858
H        4.28279044      -2.86640071       3.73470244
H        3.79696720      -0.76111051       2.62478958
H        2.36730534       0.65574037       1.19644534
H       -0.42638642      -2.59996235       0.74551998
H        0.99821165      -4.02215056       2.17394097
H        9.08982263      -9.21876586       6.60338676
H       10.35188835      -9.50332809       8.32343613
H        8.29279130      -7.63259489      10.93180308
H        9.07745146      -7.23818486      13.24390186
H       12.85955963      -9.07459011      12.28128817
H       12.07978912      -9.48562965       9.98030189
