198
Properties=species:S:1:pos:R:3 pbc="F F F"
O        8.02388602       9.37527091      -6.10727092
C        8.28492946       8.95505402      -7.23387281
C        7.62688733       7.70795891      -7.84279937
O        6.62325283       7.08083462      -7.03965552
C        5.42364567       7.85659852      -6.98730987
C        4.32689219       7.23669127      -6.11966568
O        3.22822568       7.77577423      -5.99628271
N        4.70997873       6.04042205      -5.53538106
N        3.83390749       5.34957292      -4.75695716
C        4.26584403       4.23566027      -4.26184323
C        3.40232112       3.39642770      -3.40347528
C        3.90081152       2.18814997      -2.90686917
C        3.09111773       1.38410780      -2.09862806
C        1.79186723       1.79186723      -1.79186723
C        1.29191346       2.99654691      -2.28404507
C        2.09880436       3.80093736      -3.09207195
N        9.21078648       9.61519575      -8.00542620
N        9.61753961       9.17528095      -9.22755990
C       10.62567093       9.83400335      -9.70973779
C       11.25169401       9.49932575     -11.00167304
C       10.62395182       8.65249786     -11.91891135
C       11.26499419       8.33792297     -13.12061889
C       12.52937289       8.86326504     -13.39110121
C       13.15581062       9.71130799     -12.47795669
C       12.51278116      10.03615510     -11.28137747
H        8.41775591       6.96362559      -7.98673848
H        7.20907765       7.95232667      -8.82602360
H        5.01734916       7.95299061      -8.00027389
H        5.62751990       8.85008055      -6.57718564
H        5.65507418       5.70389773      -5.70355655
H        5.28748804       3.86533802      -4.46077960
H        4.91040115       1.86153760      -3.14064062
H        3.47938618       0.44431684      -1.71401936
H        0.28108816       3.31953329      -2.04818654
H        1.70649518       4.74130409      -3.47621598
H        9.64565742      10.42398339      -7.57204651
H       11.08703666      10.66995232      -9.15137566
H        9.64109813       8.23773446     -11.70806875
H       10.77484106       7.68013280     -13.83427640
H       14.14349713      10.11637976     -12.68527310
H       13.01408696      10.68967200     -10.57167378
C       13.19794513       8.52248723     -14.62011775
C       13.75787437       8.23708581     -15.64941910
Br      14.66323260       7.77561586     -17.31371233
O       -7.12837691      -6.66534967      -9.71270128
C       -7.75889376      -7.56169678      -9.15326576
C       -7.84265918      -7.70833096      -7.62665546
O       -7.18772194      -6.68787997      -6.86814106
C       -7.89524803      -5.44701427      -6.92529176
C       -7.21990951      -4.31674547      -6.14659416
O       -7.72205132      -3.19574327      -6.08248802
N       -6.03738726      -4.70814381      -5.54025076
N       -5.33205517      -3.82331576      -4.78506664
C       -4.24772194      -4.27313687      -4.24248872
C       -3.40035897      -3.40469808      -3.39716704
C       -2.24791699      -3.93694838      -2.81096530
C       -1.44218941      -3.12623553      -2.00542866
C       -1.79186723      -1.79186723      -1.79186723
C       -2.93937989      -1.25734865      -2.37577690
C       -3.74596467      -2.06556630      -3.18028270
N       -8.42823011      -8.49311312      -9.91006520
N       -9.08213633      -9.56122171      -9.37702242
C       -9.48984366     -10.41758214     -10.26198628
C      -10.18513151     -11.66635178      -9.90120951
C      -10.70780908     -11.86665174      -8.62090021
C      -11.33490131     -13.07705297      -8.31158177
C      -11.42587324     -14.07879907      -9.27906683
C      -10.90752851     -13.87907975     -10.55846704
C      -10.29028128     -12.66643312     -10.87359934
H       -7.35064506      -8.65175895      -7.36571597
H       -8.89200011      -7.77723108      -7.31819673
H       -8.89240833      -5.58534796      -6.49285736
H       -7.98788578      -5.10621230      -7.96068802
H       -5.71860313      -5.66396548      -5.67995984
H       -3.91385584      -5.31682331      -4.38292651
H       -1.96764599      -4.97455732      -2.97037606
H       -0.54700227      -3.54147273      -1.54924739
H       -3.21654470      -0.21881832      -2.21344497
H       -4.64229693      -1.64663263      -3.63508569
H       -8.34008717      -8.38567420     -10.91592595
H       -9.30515345     -10.26184025     -11.34137095
H      -10.63346762     -11.08962689      -7.86380683
H      -11.74263820     -13.23114796      -7.31546411
H      -10.97274242     -14.66127847     -11.31112910
H       -9.88023765     -12.52467981     -11.87051528
C      -12.05385537     -15.33311125      -8.95358349
C      -12.57979039     -16.38359770      -8.68099119
Br     -13.43018285     -18.08214545      -8.24023249
O       -7.32541056       6.50890986       9.67210743
C       -7.86197953       7.47707844       9.13479833
C       -7.83678926       7.72210109       7.61875526
O       -7.19748075       6.70946168       6.83680054
C       -7.98190404       5.51625436       6.76939566
C       -7.32768554       4.39414270       5.96142090
O       -7.89229282       3.31434027       5.79364953
N       -6.08636107       4.74393057       5.45549019
N       -5.38877000       3.86287661       4.68879097
C       -4.24582364       4.27335540       4.24416849
C       -3.39988486       3.40487618       3.39746305
C       -2.18120687       3.89568013       2.91894366
C       -1.37579711       3.08497560       2.11308088
C       -1.79186723       1.79186723       1.79186723
C       -3.00562503       1.29862277       2.26825764
C       -3.81197410       2.10696121       3.07287836
N       -8.52097109       8.40208541       9.90835194
N       -9.07203718       9.54123595       9.40710735
C       -9.48341224      10.36656197      10.31943787
C      -10.07587109      11.67779740       9.99902431
C      -10.50061938      11.98983024       8.70491141
C      -11.03086508      13.25524834       8.43742263
C      -11.12325669      14.19964933       9.46083313
C      -10.70272894      13.88853327      10.75381309
C      -10.18280572      12.62116522      11.02634279
H       -7.27193119       8.64561320       7.45057559
H       -8.85756559       7.87810633       7.25175600
H       -8.93836460       5.74560272       6.28664634
H       -8.16262264       5.11944513       7.77271832
H       -5.71942772       5.66655182       5.67654890
H       -3.85853441       5.28245975       4.47261150
H       -1.84890820       4.90106723       3.16260395
H       -0.42899486       3.46806228       1.74066524
H       -3.33469576       0.29229418       2.02181804
H       -4.76005334       1.72035206       3.44360985
H       -8.50541269       8.22771261      10.90856201
H       -9.37945152      10.13327513      11.39563799
H      -10.42475826      11.25744673       7.90469635
H      -11.36251266      13.49635214       7.43038545
H      -10.76889301      14.62574559      11.55051139
H       -9.84815678      12.39215411      12.03512185
C      -11.65064397      15.50985035       9.18005577
C      -12.09233083      16.60714371       8.94490474
Br     -12.80650111      18.38137427       8.56468541
O        8.26844886      -9.21773294       6.02024605
C        8.41349797      -8.86906584       7.19129249
C        7.61757622      -7.72437643       7.83569295
O        6.62884509      -7.11078044       7.00411744
C        5.50051567      -7.96497763       6.80206076
C        4.42443536      -7.36026423       5.89854956
O        3.38311687      -7.96625963       5.65090612
N        4.75416548      -6.09736836       5.43424799
N        3.88549712      -5.41309756       4.64184290
C        4.26377431      -4.23551950       4.26405372
C        3.40177673      -3.39655151       3.40389585
C        3.83895941      -2.12020572       3.03666553
C        3.02960216      -1.31624492       2.22800651
C        1.79186723      -1.79186723       1.79186723
C        1.35326919      -3.06439534       2.15484090
C        2.15988228      -3.86888885       2.96304254
N        9.32976573      -9.51865869       7.98298401
N        9.61123017      -9.14731350       9.26183680
C       10.63016608      -9.76690920       9.77233680
C       11.13281897      -9.48976593      11.13010790
C       10.37597036      -8.76496977      12.05442090
C       10.90166815      -8.49967226      13.32219563
C       12.18030729      -8.95152525      13.65190660
C       12.93565715      -9.67794414      12.73147401
C       12.40841495      -9.95400027      11.46789851
H        8.33531492      -6.93821629       8.09458878
H        7.14998847      -8.07450040       8.76293904
H        5.03065154      -8.16945973       7.77050238
H        5.81062177      -8.90595884       6.33820549
H        5.65537714      -5.70740974       5.69974157
H        5.23622653      -3.80881220       4.56856693
H        4.80031827      -1.74055623       3.37170486
H        3.37006325      -0.32360036       1.94405877
H        0.39054950      -3.44036590       1.81789258
H        1.81548218      -4.86236244       3.24617063
H        9.85679868     -10.25743753       7.52745111
H       11.19472486     -10.52100341       9.19263637
H        9.38157407      -8.40732312      11.79800416
H       10.31115842      -7.93694871      14.04114313
H       13.93435662     -10.02532845      12.98546492
H       13.00939314     -10.51197568      10.75406391
C       12.72935024      -8.66031377      14.95088609
C       13.18917371      -8.41642416      16.03878141
Br      13.93266938      -8.02207528      17.79781613
C       -0.00445707       0.01189536      -1.78238275
H       -0.66409135       0.67374010      -2.43557963
H        0.65740317      -0.63156657      -2.45157240
C       -0.90989263      -0.90692880      -0.91072765
C        0.90977584       0.90977584      -0.90977584
C       -0.00465871       1.77757030       0.00794375
H       -0.66225468       2.44313916      -0.64384735
H        0.64322798       2.43503045       0.67728295
C       -1.78241447       0.00034974      -0.00472694
H       -2.45427497      -0.65498947       0.64260836
H       -2.43311707       0.67328779      -0.65473579
C       -0.91132561       0.90220522       0.91563759
C       -0.01476271      -0.02253852       1.78660255
H       -0.67934791      -0.69751639       2.42135241
H        0.63392994       0.61504881       2.47327442
C        0.01484550      -1.77751727      -0.01636693
H        0.67870853      -2.42144646      -0.68295456
H       -0.62264859      -2.45592969       0.64226336
C        1.78714474       0.01002794       0.00389507
H        2.44202412       0.67113390       0.66197326
H        2.45385902      -0.65136977      -0.64189061
C        0.91606151      -0.90478549       0.90901405
