137
Properties=species:S:1:pos:R:3 pbc="F F F"
C        0.00000000       0.00000000       0.00000000
C        0.88132878       0.88132878      -0.88132878
C        1.26168890       0.43483917      -2.14582101
C        2.06388800       1.24246678      -2.95972403
C        2.49164689       2.49630704      -2.50451666
C        2.10931313       2.92887026      -1.22598734
C        1.30077838       2.12558514      -0.41714777
C        3.35142950       3.39968417      -3.32818650
O        3.94229606       4.32644128      -2.77666683
C        3.42615487       3.16384195      -4.82790979
C        4.41403250       4.09076490      -5.54602649
C        5.88692321       3.79875783      -5.23549835
C        6.37170466       2.46607957      -5.78599295
O        5.65882260       1.74357414      -6.48224434
C        7.76418223       2.02098404      -5.47252361
C        8.66817655       2.82546137      -4.76702871
C        9.96445548       2.36590323      -4.50757550
C       10.35733130       1.10448137      -4.95137626
Br      12.11108843       0.49184939      -4.60479381
C        9.46729321       0.29351930      -5.65102529
C        8.17309552       0.75207443      -5.91092183
H        0.94216563      -0.53992490      -2.50732161
H        2.34756577       0.85846976      -3.93504368
H        2.43473607       3.89992170      -0.85571890
H        1.00775443       2.48043977       0.56763373
H        2.42392706       3.34813905      -5.23346601
H        3.69186891       2.12356734      -5.02347767
H        4.19864916       5.13326842      -5.27544176
H        4.24884438       4.00557668      -6.62724883
H        6.05414218       3.81906054      -4.15475668
H        6.49235606       4.58588129      -5.69973643
H        8.39480461       3.81455812      -4.41048480
H       10.65818934       3.00057320      -3.96198675
H        9.76664819      -0.69133121      -6.00020102
H        7.48424116       0.11237805      -6.46088447
C       -0.88132878      -0.88132878      -0.88132878
C       -1.22263472      -0.45568961      -2.16402475
C       -2.02469500      -1.26358470      -2.97779913
C       -2.49146400      -2.49660184      -2.50440475
C       -2.14818069      -2.90804225      -1.20794780
C       -1.33977405      -2.10474734      -0.39898989
C       -3.35306862      -3.39912220      -3.32710935
O       -3.97748030      -4.29932054      -2.76860332
C       -3.38845418      -3.19635249      -4.83309995
C       -4.38101350      -4.11707707      -5.55273331
C       -5.85340171      -3.78480230      -5.28297538
C       -6.29472530      -2.45458969      -5.87446218
O       -5.54981189      -1.76463341      -6.57019578
C       -7.68327312      -1.97105360      -5.60336317
C       -8.62130091      -2.73841147      -4.90095425
C       -9.91214691      -2.24383935      -4.68194795
C      -10.26566696      -0.98445650      -5.16306547
Br     -12.01218407      -0.32455125      -4.87099632
C       -9.34157030      -0.21016723      -5.86010028
C       -8.05277128      -0.70370012      -6.07962039
H       -0.87260547       0.50300434      -2.53996121
H       -2.27733993      -0.89590950      -3.96782977
H       -2.50421871      -3.86268983      -0.82346814
H       -1.07732835      -2.44328781       0.60005568
H       -2.38185067      -3.41254365      -5.21113781
H       -3.62558968      -2.15513906      -5.05818518
H       -4.19592732      -5.15764958      -5.25378244
H       -4.18953712      -4.06063314      -6.63149964
H       -6.04539849      -3.77635982      -4.20620109
H       -6.46621799      -4.56857007      -5.74318572
H       -8.37896335      -3.72492883      -4.51595535
H      -10.63249255      -2.84991781      -4.13833893
H       -9.61014175       0.77286281      -6.23823906
H       -7.33708777      -0.09258874      -6.62782717
C       -0.88132878       0.88132878       0.88132878
C       -1.01473369       2.23785349       0.58976190
C       -1.82706986       3.04797874       1.39103022
C       -2.50172191       2.50076201       2.48998666
C       -2.35068976       1.13603383       2.77744715
C       -1.54630484       0.32564774       1.97155870
C       -3.37963278       3.31767602       3.38199137
O       -3.68987651       2.87073569       4.48479196
C       -3.89316985       4.65386793       2.87086884
C       -4.69993572       5.43947930       3.91140886
C       -3.86041539       5.99071438       5.07004963
C       -2.88912685       7.08384068       4.65080964
O       -2.85373618       7.52761224       3.50329267
C       -1.94737160       7.64026684       5.67005144
C       -1.98706821       7.25686865       7.01672977
C       -1.08909612       7.81514410       7.93369398
C       -0.15229697       8.75447310       7.50641886
Br       1.05296643       9.51062498       8.75007309
C       -0.10018942       9.14185165       6.16979673
C       -0.99692091       8.58525747       5.25391341
H       -0.48997149       2.67584021      -0.25624936
H       -1.90049283       4.10165377       1.13893261
H       -2.86634768       0.69487077       3.62915823
H       -1.44727145      -0.73142796       2.20471699
H       -4.54711445       4.44222054       2.01619714
H       -3.05549808       5.26063316       2.52278268
H       -5.48758902       4.79509422       4.32467610
H       -5.20647260       6.27037077       3.40482652
H       -3.30036813       5.18100207       5.54658920
H       -4.54593213       6.42510770       5.80693395
H       -2.70687999       6.53019625       7.38277129
H       -1.13169355       7.51221352       8.97684222
H        0.62765744       9.87383334       5.82934208
H       -0.95084667       8.89567607       4.21098093
C        0.88132878      -0.88132878       0.88132878
C        1.40155462      -2.06963149       0.37116297
C        2.21551825      -2.87712598       1.17343459
C        2.50379076      -2.49790149       2.49077834
C        1.96561651      -1.30426369       2.99429054
C        1.16003911      -0.49381315       2.18965903
C        3.36380648      -3.32144434       3.39404934
O        3.33050354      -3.10993063       4.60497000
C        4.28274987      -4.36129391       2.77386283
C        5.03831611      -5.20595837       3.80654941
C        4.15085537      -6.18119243       4.58913159
C        3.58293538      -7.30512863       3.73571316
O        3.88497316      -7.44851932       2.55114860
C        2.62718237      -8.27081885       4.35968867
C        2.30504912      -8.23323654       5.72238096
C        1.41139337      -9.16671383       6.25982701
C        0.83963489     -10.13598308       5.43757096
Br      -0.36067696     -11.39858058       6.16982802
C        1.14900505     -10.18227442       4.08055834
C        2.04168837      -9.25090390       3.54349952
H        1.17866306      -2.37849357      -0.64759429
H        2.59599156      -3.79971786       0.74536979
H        2.17796354      -0.99559147       4.01682166
H        0.75815106       0.43166645       2.59407585
H        5.01862082      -3.82004974       2.16686156
H        3.70699701      -5.01523689       2.11668002
H        5.54447944      -4.54232309       4.52055680
H        5.82443336      -5.76897295       3.28826360
H        3.32513444      -5.64133826       5.06148670
H        4.76400652      -6.64122610       5.37274116
H        2.73573644      -7.49316807       6.39094303
H        1.17163096      -9.12963165       7.31948669
H        0.70698226     -10.93530335       3.43323238
H        2.27996691      -9.29582631       2.48171046
