125
Properties=species:S:1:pos:R:3 pbc="F F F"
C        0.00000000       0.00000000       0.00000000
C        0.88162144       0.88162144      -0.88162144
C        2.24412745       0.98828187      -0.60865323
C        3.05093871       1.80066960      -1.41056184
C        2.50102276       2.48658449      -2.50172949
C        1.12497521       2.38902528      -2.75158087
C        0.31594486       1.58346498      -1.94489557
C        3.31061321       3.38582614      -3.37002879
O        2.80140584       4.40256663      -3.83900701
N        4.63236252       3.08509614      -3.64426879
N        5.19999630       1.87087123      -3.40854813
C        6.46964828       1.80308095      -3.65780250
C        7.22025821       0.54722059      -3.45041076
C        8.61664040       0.61436970      -3.50912197
C        9.36882805      -0.54225938      -3.30775707
C        8.74650046      -1.76344750      -3.05893666
C        7.35264647      -1.82881473      -3.00495248
Cl       6.62035523      -3.36256156      -2.69783831
C        6.58120699      -0.67559144      -3.19443984
O        5.21544096      -0.78000085      -3.13033898
H        2.68678108       0.45187005       0.22689321
H        4.10389794       1.90044767      -1.16242552
H        0.67892752       2.94423128      -3.57490675
H       -0.74888914       1.51544169      -2.15193993
H        5.11306328       3.76397401      -4.22818968
H        7.04166332       2.68047580      -4.01345988
H        9.11904051       1.56005924      -3.69750983
H        9.33812953      -2.66280119      -2.90548805
H        4.82214910       0.11291254      -3.23842212
C       10.80636064      -0.47106642      -3.35283049
C       12.01029419      -0.41144232      -3.39057948
Br      13.95695290      -0.31503518      -3.45161640
C       -0.88162144      -0.88162144      -0.88162144
C       -2.00666416      -0.33665719      -1.49774121
C       -2.81855999      -1.14438978      -2.29922038
C       -2.49182928      -2.49119906      -2.50630840
C       -1.37046772      -3.03277377      -1.86233987
C       -0.56281373      -2.22766498      -1.05382670
C       -3.33760085      -3.40094108      -3.32792621
O       -3.45121876      -4.58331801      -3.00844272
N       -3.99959103      -2.91947745      -4.44265898
N       -3.72767923      -1.72212153      -5.02961490
C       -4.50546347      -1.40797902      -6.01708924
C       -4.32838389      -0.13798991      -6.75151576
C       -5.34310327       0.24046445      -7.63749325
C       -5.22672417       1.43670614      -8.34430770
C       -4.10904627       2.25291244      -8.18585580
C       -3.09566352       1.87109591      -7.30421661
Cl      -1.72518819       2.90920114      -7.13964492
C       -3.20018063       0.67826727      -6.57814203
O       -2.18588673       0.33978369      -5.71967605
H       -2.26524125       0.70973484      -1.35625151
H       -3.71108975      -0.71249378      -2.74318761
H       -1.12518915      -4.08606532      -1.98681108
H        0.30483796      -2.66056659      -0.56276386
H       -4.56906990      -3.60508686      -4.93107020
H       -5.33865318      -2.06279202      -6.33415380
H       -6.22460720      -0.38215784      -7.76984454
H       -4.02231952       3.18336576      -8.74186263
H       -2.42461794      -0.49223353      -5.25663229
C       -6.27771933       1.83438178      -9.24478716
C       -7.15792777       2.16743513      -9.99893871
Br      -8.58115038       2.70595424     -11.21833798
C       -0.88162144       0.88162144       0.88162144
C       -0.29590974       1.84890147       1.69625135
C       -1.10129696       2.65171663       2.50915656
C       -2.49478222       2.50570226       2.48885226
C       -3.06972673       1.51353923       1.68231540
C       -2.26427906       0.70457318       0.87545318
C       -3.39537906       3.31606629       3.35502279
O       -4.41771581       2.81005343       3.81521025
N       -3.08253389       4.63089992       3.64829364
N       -2.14243423       5.35501230       2.98196912
C       -1.93470020       6.54478035       3.45105118
C       -0.94330993       7.44635742       2.82822221
C       -0.60342076       8.61039042       3.52632089
C        0.33654021       9.48625849       2.98460745
C        0.93264667       9.22074554       1.75389075
C        0.58876107       8.06050488       1.05704041
Cl       1.34781721       7.77042942      -0.46698023
C       -0.34554686       7.16410219       1.59040633
O       -0.65414274       6.03409150       0.87754485
H        0.78290834       1.98193395       1.71273231
H       -0.62605949       3.37644040       3.16427123
H       -4.14833038       1.36626202       1.68347315
H       -2.72407040      -0.05896901       0.25339109
H       -3.74241221       5.10075518       4.26205957
H       -2.47189926       6.92260182       4.34109793
H       -1.05532553       8.83092395       4.49036010
H        1.66297122       9.90886132       1.33492629
H       -1.28415865       5.49073017       1.39859494
C        0.69819718      10.67670785       3.70961404
C        1.00108490      11.67370919       4.31680706
Br       1.49082872      13.28577603       5.29858681
C        0.88162144      -0.88162144       0.88162144
C        0.51692173      -1.11842362       2.20571720
C        1.32686904      -1.91940665       3.01589446
C        2.48843593      -2.50544439       2.49545642
C        2.85617796      -2.24063079       1.16877261
C        2.05110992      -1.43277605       0.36041944
C        3.39969582      -3.34373680       3.32303553
O        4.61313661      -3.30428975       3.12555312
N        2.88704820      -4.15938379       4.31529546
N        1.56942485      -4.48008108       4.42990974
C        1.26846937      -5.19288716       5.46917519
C       -0.12371660      -5.61792380       5.72368236
C       -0.40887363      -6.17292731       6.97607839
C       -1.71091122      -6.57784989       7.26738706
C       -2.72703592      -6.44525542       6.32377012
C       -2.43919549      -5.89493313       5.07304658
Cl      -3.72633966      -5.75157918       3.93039245
C       -1.13955844      -5.47315949       4.76645433
O       -0.89761422      -4.93455633       3.52883698
H       -0.38814826      -0.68064659       2.61925958
H        1.04660949      -2.06475876       4.05540289
H        3.77431228      -2.66132971       0.76242356
H        2.34743709      -1.23808502      -0.66702962
H        3.58259549      -4.67989450       4.84273697
H        2.03164560      -5.49212491       6.21182849
H        0.37103572      -6.27941063       7.72616323
H       -3.74006360      -6.76540789       6.55547210
H        0.04067620      -4.64963405       3.48317351
C       -2.00836091      -7.13498889       8.56149673
C       -2.25747502      -7.60159280       9.64531357
Br      -2.66027147      -8.35605186      11.39775374
