166
Properties=species:S:1:pos:R:3 pbc="F F F"
C        1.79074946       1.79074946      -1.79074946
C        3.08074924       1.38022323      -2.11229253
C        3.89190181       2.17899249      -2.93016322
C        3.40389798       3.37391585      -3.46746110
C        2.11250202       3.79457543      -3.09008674
C        1.30922274       3.00539827      -2.26132186
N        4.14688219       4.20126127      -4.36303713
N        3.77842837       5.50525082      -4.48681239
N        4.68450335       6.09404609      -5.23939298
N        5.60102851       5.19683385      -5.67572587
C        5.25098892       4.00810250      -5.19734765
C        5.94884257       2.72006349      -5.55173498
Cl       6.86924605       2.97368478      -7.10751309
Cl       7.17996369       2.46787982      -4.26270878
C        5.03275086       1.56514920      -5.81162684
N        3.77602084       1.69217227      -6.21844670
N        3.17438706       0.48670406      -6.03141336
N        4.02676705      -0.38778547      -5.53154211
N        5.23905839       0.21624195      -5.53104056
C        6.39181133      -0.54398903      -5.22195442
C        6.27271742      -1.60695779      -4.31070228
C        7.39987604      -2.34495245      -3.94035489
C        8.63711077      -2.04778811      -4.50550999
C        8.75364622      -1.03197777      -5.45188290
C        7.63016405      -0.28321499      -5.81767216
H        3.46821467       0.44017627      -1.72624954
H        4.90130710       1.82885156      -3.07714404
H        1.69245055       4.73232915      -3.45516151
H        0.30965830       3.34621715      -2.00189221
H        5.31680871      -1.85465841      -3.84960857
H        7.30214731      -3.14486566      -3.20971926
H        9.71407739      -0.81877202      -5.91671237
H        7.75814563       0.45958698      -6.59713842
C        9.80158197      -2.80066054      -4.11719320
C       10.77682659      -3.43119120      -3.79197788
Br      12.35371467      -4.45070596      -3.26613222
C       -1.79074946      -1.79074946      -1.79074946
C       -2.92616759      -1.25579205      -2.39130537
C       -3.73414569      -2.05607375      -3.21083807
C       -3.38917505      -3.38588479      -3.47021509
C       -2.26248469      -3.92110530      -2.81357421
C       -1.46547401      -3.12707333      -1.98339553
N       -4.12427306      -4.23776528      -4.34914226
N       -3.97632270      -5.58329823      -4.21087065
N       -4.84950971      -6.15365430      -5.01477841
N       -5.51892448      -5.22080680      -5.73385695
C       -5.04067640      -4.03205555      -5.38370712
C       -5.44084096      -2.73701778      -6.04278231
Cl      -6.14960238      -3.12013720      -7.68070435
Cl      -6.78639547      -2.08204009      -5.04211672
C       -4.30783868      -1.79505936      -6.30662886
N       -3.04663682      -2.17710182      -6.46290117
N       -2.27726399      -1.06066594      -6.35457454
N       -3.02753721       0.00495484      -6.14794132
N       -4.31343831      -0.40239791      -6.27050468
C       -5.34770111       0.56321411      -6.28528971
C       -5.18068935       1.73996780      -5.53574036
C       -6.20306513       2.69089218      -5.48310554
C       -7.37518467       2.48652502      -6.20617300
C       -7.52619871       1.34911438      -6.99646703
C       -6.50997007       0.38905857      -7.04370972
H       -3.19556053      -0.21553723      -2.22354272
H       -4.63308136      -1.59096845      -3.58325289
H       -1.96409763      -4.96029393      -2.95554964
H       -0.59120803      -3.56189289      -1.50466674
H       -4.27554666       1.91977895      -4.95599116
H       -6.07617391       3.58311027      -4.87393727
H       -8.42912813       1.20288856      -7.58577818
H       -6.64900598      -0.45165708      -7.71420797
C       -8.43393158       3.46063516      -6.14481821
C       -9.32063211       4.27645241      -6.09343356
Br     -10.75435188       5.59555989      -6.01034894
C       -1.79074946       1.79074946       1.79074946
C       -1.22496503       2.84015627       2.50814370
C       -2.02969512       3.66054594       3.31081645
C       -3.41270500       3.46400687       3.36856306
C       -3.95826137       2.36615488       2.67274794
C       -3.15311144       1.53812370       1.88470773
N       -4.30159201       4.30235784       4.10723074
N       -5.52126695       3.80324746       4.44597717
N       -6.09510068       4.68613757       5.23670417
N       -5.31694024       5.78714914       5.36949884
C       -4.23151666       5.59719850       4.62772392
C       -3.16771168       6.64253224       4.41039712
Cl      -3.88321108       8.27867651       4.78855633
Cl      -1.91731489       6.32679102       5.66644637
C       -2.66663592       6.73964921       3.00324176
N       -3.37085398       6.37735864       1.93842719
N       -2.50085668       6.29558111       0.89606669
N       -1.27878554       6.60933774       1.28240041
N       -1.38111300       7.04417907       2.56104883
C       -0.25445685       7.62910810       3.18621177
C        1.02580924       7.17328344       2.82898770
C        2.15825743       7.68918450       3.46435142
C        2.01732146       8.68432284       4.42783128
C        0.75580167       9.18161736       4.74773566
C       -0.38174167       8.66060174       4.12227780
H       -0.15471197       3.02585024       2.45407826
H       -1.51002882       4.40724939       3.89002450
H       -5.02608553       2.14766464       2.70619103
H       -3.60435019       0.70966936       1.34374811
H        1.16173667       6.39058196       2.08291360
H        3.14227423       7.30616307       3.20311207
H        0.64689352       9.98042571       5.47848556
H       -1.33586009       9.11604592       4.36296501
C        3.18257482       9.20975562       5.09093383
C        4.15847452       9.64980557       5.64628221
Br       5.73642178      10.36132913       6.54423358
C        1.79074946      -1.79074946       1.79074946
C        1.21695649      -2.80426580       2.55204271
C        2.02120625      -3.62469931       3.35515196
C        3.41009253      -3.46516124       3.37002116
C        3.96558121      -2.40209110       2.62949188
C        3.16152487      -1.57361473       1.84080328
N        4.29617281      -4.30760977       4.10739801
N        5.53782861      -3.83359709       4.39906589
N        6.10933461      -4.71039363       5.19821418
N        5.30569297      -5.78537556       5.38251970
C        4.20561479      -5.58546535       4.66535893
C        3.10832301      -6.60633916       4.50597888
Cl       3.78957269      -8.25090828       4.90996296
Cl       1.90228575      -6.22216059       5.78610594
C        2.56591453      -6.72749305       3.11611932
N        3.24981841      -6.41381071       2.02301069
N        2.35373245      -6.33609909       1.00267294
N        1.13483087      -6.60523582       1.43045700
N        1.26084535      -7.00803799       2.71745756
C        0.13659244      -7.54433940       3.38884487
C       -1.14031565      -7.06295077       3.05382679
C       -2.26820748      -7.52983952       3.73364645
C       -2.12750918      -8.50210742       4.72023441
C       -0.87149058      -9.02542263       5.01961931
C        0.26190593      -8.55329697       4.34941831
H        0.14098741      -2.96155445       2.53209861
H        1.49783893      -4.34075504       3.96870874
H        5.03943672      -2.21252067       2.62798382
H        3.61978768      -0.77293526       1.26504473
H       -1.27571158      -6.29722398       2.29024648
H       -3.24839026      -7.12683399       3.48855718
H       -0.76395455      -9.80690782       5.76906448
H        1.20968475      -9.02839582       4.57679046
C       -3.28766867      -8.97685993       5.42892336
C       -4.25930224      -9.37446515       6.02245035
Br      -5.83035154     -10.01735917       6.98213330
C       -0.00445707       0.01189536      -1.78238275
H       -0.66409135       0.67374010      -2.43557963
H        0.65740317      -0.63156657      -2.45157240
C       -0.90989263      -0.90692880      -0.91072765
C        0.90977584       0.90977584      -0.90977584
C       -0.00465871       1.77757030       0.00794375
H       -0.66225468       2.44313916      -0.64384735
H        0.64322798       2.43503045       0.67728295
C       -1.78241447       0.00034974      -0.00472694
H       -2.45427497      -0.65498947       0.64260836
H       -2.43311707       0.67328779      -0.65473579
C       -0.91132561       0.90220522       0.91563759
C       -0.01476271      -0.02253852       1.78660255
H       -0.67934791      -0.69751639       2.42135241
H        0.63392994       0.61504881       2.47327442
C        0.01484550      -1.77751727      -0.01636693
H        0.67870853      -2.42144646      -0.68295456
H       -0.62264859      -2.45592969       0.64226336
C        1.78714474       0.01002794       0.00389507
H        2.44202412       0.67113390       0.66197326
H        2.45385902      -0.65136977      -0.64189061
C        0.91606151      -0.90478549       0.90901405
