113
Properties=species:S:1:pos:R:3 pbc="F F F"
C        0.00000000       0.00000000       0.00000000
Cl       2.27731842       3.05340656      -8.29980441
C        1.04369984       2.96223092      -7.10366248
C        1.31218275       3.39160546      -5.80189347
C        0.31945158       3.33030619      -4.80897345
C        0.63690709       3.78579410      -3.40224682
C        1.16706729       2.68189275      -2.51311747
C        2.55458835       2.44909777      -2.47643993
C        3.09076651       1.45468568      -1.65674712
Cl       4.79234945       1.19951917      -1.63298001
C        2.26438211       0.67297992      -0.85798340
C        0.88681848       0.88681848      -0.88681848
C        0.33728703       1.87608098      -1.71577195
O       -1.02104491       2.04212689      -1.71365831
C       -0.93795525       2.82202376      -5.15939111
O       -1.90311966       2.75214393      -4.18751909
C       -1.20038032       2.39278728      -6.46694539
C       -0.21011134       2.46253134      -7.44357834
H        2.30126608       3.77675130      -5.56127578
H       -0.23897154       4.26198966      -2.94362148
H        1.37530866       4.59904211      -3.44563191
H        3.22480464       3.05294603      -3.08514158
H        2.69043075      -0.09652368      -0.22058527
H       -1.30479545       2.41210686      -2.57298849
H       -2.71771274       2.41767110      -4.61531751
H       -0.40711612       2.13010796      -8.45922696
C       -2.49462565       1.87158547      -6.82314436
C       -3.57855611       1.43507896      -7.12146100
Br      -5.33117999       0.72928484      -7.60381378
Cl      -7.17981725      -5.57488845      -0.87582370
C       -6.64765566      -3.98886140      -0.47307618
C       -5.85213820      -3.27848704      -1.37505644
C       -5.40861417      -1.98030568      -1.06981135
C       -4.53498221      -1.23561150      -2.05435430
C       -3.05391649      -1.46436546      -1.84379556
C       -2.43469553      -2.54307898      -2.50235154
C       -1.06747859      -2.78133475      -2.35338597
Cl      -0.34163677      -4.10678336      -3.17642849
C       -0.28782994      -1.95659427      -1.55092120
C       -0.88681848      -0.88681848      -0.88681848
C       -2.26221033      -0.64585752      -1.02107211
O       -2.80386585       0.41231066      -0.34318511
C       -5.77965309      -1.42559762       0.16179109
O       -5.33756556      -0.16298804       0.46401024
C       -6.57753581      -2.14380966       1.06199312
C       -7.01482727      -3.42779961       0.74662853
H       -5.57747142      -3.74028927      -2.32153247
H       -4.76448472      -0.16259116      -2.03956371
H       -4.80458461      -1.53956541      -3.07583266
H       -3.02036920      -3.19877127      -3.14375179
H        0.77609775      -2.14735755      -1.44323254
H       -3.74930437       0.23619062      -0.16718615
H       -5.72306274       0.07624993       1.33153694
H       -7.63292827      -3.99039461       1.44110409
C       -6.95729809      -1.56955863       2.32675253
C       -7.27534899      -1.08862340       3.38598854
Br      -7.78961041      -0.31099179       5.09868358
Cl      -1.00181498       5.16318889       7.46552553
C       -0.17420621       4.96547366       5.96991336
C       -0.90742718       4.80655112       4.79170338
C       -0.25366792       4.64720356       3.55785974
C       -1.06736240       4.46078793       2.29679767
C       -1.37007435       3.01233611       1.97966705
C       -2.53641865       2.43175846       2.51194893
C       -2.86639382       1.10498783       2.23081766
Cl      -4.30228299       0.42784797       2.89471766
C       -2.04912184       0.32863264       1.41759095
C       -0.88681848       0.88681848       0.88681848
C       -0.54062534       2.21580517       1.17270945
O        0.61385398       2.71498952       0.63360476
C        1.14706587       4.64516308       3.54536241
O        1.78472513       4.47866538       2.34260311
C        1.87631254       4.80474722       4.73091767
C        1.21747047       4.96636172       5.94710709
H       -1.99485384       4.80777143       4.83666790
H       -0.57553188       4.94658282       1.44452491
H       -2.01278596       5.01326483       2.39393189
H       -3.19839805       3.02020462       3.14428959
H       -2.31523431      -0.70206766       1.20132568
H        0.95542251       3.43213837       1.20358404
H        2.74599809       4.54576045       2.51551351
H        1.77744052       5.08943536       6.87022395
C        3.31620623       4.80277945       4.71353096
C        4.52211719       4.80113144       4.69896959
Br       6.47197323       4.79846676       4.67542509
Cl       3.74504931      -8.14504168       1.74043841
C        3.64421192      -6.82945530       0.63592602
C        3.88879412      -5.53020646       1.08668110
C        3.81603832      -4.44028098       0.20241191
C        4.06909314      -3.04034499       0.71550988
C        2.82001070      -2.33882528       1.20324154
C        2.44129434      -2.48838605       2.55044565
C        1.30781445      -1.84474789       3.04963697
Cl       0.87579505      -2.04595535       4.70309823
C        0.52877595      -1.04099185       2.22557763
C        0.88681848      -0.88681848       0.88681848
C        2.01768091      -1.53858527       0.37287377
O        2.32291134      -1.36105974      -0.94923078
C        3.48575100      -4.69293988      -1.13523126
O        3.40409945      -3.62790714      -1.99546323
C        3.24134779      -5.99859387      -1.58058932
C        3.32080491      -7.07126605      -0.69607262
H        4.13818568      -5.36758448       2.13352300
H        4.57726911      -2.43578003      -0.04640954
H        4.80050475      -3.08446712       1.53501081
H        3.03879550      -3.10475504       3.21934171
H       -0.34986289      -0.54116458       2.62319065
H        2.81794952      -2.13827169      -1.27592131
H        3.20837842      -3.99044950      -2.88355206
H        3.13122761      -8.08613148      -1.03514030
C        2.90280948      -6.25401972      -2.95672501
C        2.61928364      -6.46793887      -4.10923866
Br       2.16084634      -6.81382803      -5.97275574
