197
Properties=species:S:1:pos:R:3 pbc="F F F"
C        0.00000000       0.00000000       0.00000000
Cl       9.14898230       3.20139100      -6.78526380
C        7.90548056       3.17410837      -5.59856364
C        8.10577314       2.49975481      -4.39939003
C        7.08944329       2.46942939      -3.43842884
C        5.83868083       3.07328081      -3.67241175
C        5.68810043       3.79549343      -4.87473178
C        6.70649415       3.83618830      -5.83296159
C        4.70142767       3.00351159      -2.63689422
N        3.36158380       3.26694545      -3.26727338
C        2.45195468       2.50994890      -2.47944508
C        1.07520769       2.58063123      -2.60601204
C        0.28354955       1.76524774      -1.79223207
C        0.88227328       0.88227328      -0.88227328
C        2.26928358       0.78954116      -0.77718448
C        3.04472262       1.60615685      -1.59356799
C        4.55996658       1.65714692      -1.71535792
N        5.14913548       1.96353033      -0.36701262
C        5.15939802       3.38626948      -0.31528857
C        5.44722789       4.11475342       0.82780983
C        5.44358025       5.50987222       0.75222094
C        5.17713468       6.14961733      -0.46609291
C        4.92566118       5.41379242      -1.62443180
C        4.93259789       4.02629250      -1.53616289
C        5.07429851       0.32594584      -2.30029812
C        5.85633655      -0.57584513      -1.55003697
C        6.34434301      -1.75932926      -2.11557745
C        6.03087562      -2.08246856      -3.43079657
Cl       6.63516663      -3.53426246      -4.12546733
C        5.22111011      -1.23875230      -4.18164572
C        4.74459875      -0.04984534      -3.62010794
H        9.04873288       1.99590800      -4.20326044
H        7.30121797       1.95561548      -2.50427020
H        4.77386003       4.35088548      -5.07952658
H        6.55653222       4.39117916      -6.75595538
H        3.31832832       2.89097635      -4.21223224
H        0.61586617       3.27449515      -3.30328647
H       -0.79888728       1.82822393      -1.86795221
H        2.74079318       0.10283976      -0.08152857
H        6.12589152       1.68366609      -0.31719749
H        5.63674887       3.61433844       1.77216123
H        5.63778899       6.09217224       1.64940747
H        4.71646645       5.90426563      -2.56965151
H        6.09673757      -0.38462684      -0.50661115
H        6.96208545      -2.42632480      -1.51926875
H        4.95404869      -1.49810865      -5.20311284
H        4.10419792       0.57789585      -4.23602169
C        5.16302735       7.58844685      -0.52240118
C        5.15121246       8.79346656      -0.56955935
Br       5.13210878      10.74188152      -0.64581013
Cl      -8.99140774      -3.11067663      -7.03355274
C       -7.79763689      -3.08368473      -5.79683094
C       -8.01793202      -2.35096408      -4.63602188
C       -7.04153714      -2.32127327      -3.63449110
C       -5.80922097      -2.98541740      -3.78973501
C       -5.64047005      -3.76400705      -4.95384853
C       -6.61948117      -3.80384742      -5.95231544
C       -4.71348744      -2.91812421      -2.71022183
N       -3.36140376      -3.26307490      -3.27132396
C       -2.45330884      -2.51102359      -2.47701623
C       -1.07681570      -2.64351022      -2.54152505
C       -0.28504997      -1.82722153      -1.72875786
C       -0.88227328      -0.88227328      -0.88227328
C       -2.26718618      -0.72827382      -0.84054922
C       -3.04270723      -1.54656973      -1.65517050
C       -4.55246776      -1.54048787      -1.83951578
N       -5.20905989      -1.76443031      -0.50618822
C       -5.28233033      -3.18202982      -0.39659592
C       -5.64775791      -3.84848471       0.76207115
C       -5.70073455      -5.24453331       0.74403634
C       -5.41213576      -5.94624112      -0.43446804
C       -5.08206073      -5.27161826      -1.61020640
C       -5.03321399      -3.88249734      -1.57934195
C       -4.98490016      -0.21555776      -2.50008455
C       -5.75775458       0.74886216      -1.82163597
C       -6.17102743       1.92608521      -2.45564897
C       -5.79029397       2.17948867      -3.76839833
Cl      -6.30286085       3.62379465      -4.54730530
C       -4.98725075       1.27187795      -4.44863073
C       -4.58552061       0.08954212      -3.81888286
H       -8.94571440      -1.80090316      -4.50128377
H       -7.26928839      -1.75968282      -2.73213245
H       -4.74320728      -4.36471459      -5.09635022
H       -6.45565481      -4.40352721      -6.84448474
H       -3.26334305      -2.92999370      -4.22820016
H       -0.61936402      -3.38485529      -3.18942847
H        0.79589382      -1.93775855      -1.75542414
H       -2.73702469       0.00635151      -0.19448834
H       -6.17416133      -1.44283374      -0.50976003
H       -5.85428657      -3.30074673       1.67610722
H       -5.95635430      -5.77943111       1.65523165
H       -4.85543174      -5.81027669      -2.52467515
H       -6.04874698       0.61251378      -0.78248869
H       -6.78360705       2.64278899      -1.91421133
H       -4.66762945       1.47609013      -5.46751355
H       -3.94783740      -0.58974569      -4.38053237
C       -5.45733364      -7.38552748      -0.43101425
C       -5.49518686      -8.59092981      -0.42812170
Br      -5.55639233     -10.53996342      -0.42344470
Cl      -5.45572921       9.72592563       3.95398226
C       -4.56204739       8.26068997       3.85541521
C       -3.21949068       8.28997212       3.49545518
C       -2.49562131       7.09614647       3.40553374
C       -3.10712821       5.84734325       3.62990191
C       -4.45468869       5.85680551       4.04683144
C       -5.17808461       7.04992005       4.14763938
C       -2.32622339       4.52809214       3.48751795
N       -3.24892811       3.35697270       3.28990182
C       -2.49218903       2.44740947       2.50175016
C       -2.89631583       1.15599953       2.20953561
C       -2.07786139       0.36355545       1.39961252
C       -0.88227328       0.88227328       0.88227328
C       -0.49120890       2.19293266       1.15186766
C       -1.31557878       2.97035619       1.95851249
C       -1.15027110       4.43024398       2.35195633
N        0.17082378       4.60289918       3.04760302
C       -0.12409617       4.32452368       4.41233623
C        0.84089155       4.17895044       5.39611259
C        0.42899344       3.92367125       6.70655371
C       -0.93614876       3.84287352       7.01382264
C       -1.90679465       4.02812994       6.02896081
C       -1.48406122       4.28197530       4.72901676
C       -1.28280310       5.31918298       1.09855639
C       -0.19891682       6.05461813       0.57699345
C       -0.35403997       6.88520874      -0.53865752
C       -1.58617861       6.96977711      -1.17675209
Cl      -1.77624641       7.99426291      -2.54413782
C       -2.66186773       6.21937944      -0.71724365
C       -2.50964163       5.39963752       0.40558221
H       -2.72789948       9.23606840       3.28393345
H       -1.44176973       7.16971159       3.14962234
H       -4.96149128       4.93012981       4.31265099
H       -6.21936910       7.02441321       4.45988445
H       -4.06397546       3.61852907       2.73903238
H       -3.81676744       0.75464765       2.62223270
H       -2.37478690      -0.65900771       1.18150967
H        0.42831885       2.60485598       0.74862438
H        0.47541660       5.57332653       3.02884516
H        1.89686155       4.22629055       5.14949707
H        1.17768407       3.77724514       7.48099269
H       -2.96498197       3.96422790       6.26117372
H        0.79283776       5.99226586       1.01929378
H        0.49459312       7.45646544      -0.90684293
H       -3.62134151       6.26424812      -1.22653675
H       -3.37174811       4.81921682       0.72715053
C       -1.34237992       3.56449762       8.36699784
C       -1.68259851       3.33135780       9.50028206
Br      -2.23270320       2.95439044      11.33270681
Cl       5.23245772      -4.12627785       9.77690154
C        4.92517779      -3.57519239       8.17778238
C        4.88323816      -2.21156379       7.91011603
C        4.62295870      -1.76389630       6.61044652
C        4.35625264      -2.66596952       5.56215122
C        4.46122458      -4.04178778       5.85531328
C        4.73160587      -4.49218098       7.15185719
C        4.02426754      -2.17716029       4.14040565
N        3.31725292      -3.23717649       3.34137322
C        2.48873487      -2.50441569       2.44819811
C        1.77067665      -3.07817612       1.41299820
C        0.96742231      -2.25652331       0.61708373
C        0.88227328      -0.88227328       0.88227328
C        1.58168384      -0.31036293       1.94396246
C        2.37643940      -1.13986071       2.72814734
C        3.18493842      -0.78183113       3.96570187
N        4.16695640       0.29980316       3.61252519
C        5.30511240      -0.41421619       3.14162747
C        6.39267446       0.18593229       2.52742931
C        7.46135694      -0.61767723       2.12219735
C        7.43483208      -1.99887678       2.35913606
C        6.35604104      -2.59553765       3.01230670
C        5.29911137      -1.78499426       3.41094766
C        2.22886614      -0.36849236       5.10318397
C        2.17593286       0.94864304       5.60323858
C        1.32789114       1.29016527       6.66286532
C        0.49009597       0.33091997       7.22002763
Cl      -0.54748887       0.75094279       8.52480315
C        0.48250762      -0.96453902       6.71695688
C        1.33965729      -1.30844327       5.66676079
H        5.05243890      -1.49011787       8.70534455
H        4.62901219      -0.69007052       6.44202095
H        4.34501499      -4.78837740       5.07087970
H        4.79432818      -5.55956922       7.34976936
H        2.69941657      -3.79204398       3.93007635
H        1.84917446      -4.14059755       1.20387578
H        0.41622197      -2.69290769      -0.21184080
H        1.51477385       0.75083393       2.16122159
H        4.48347422       0.79786369       4.44114457
H        6.40062063       1.25355750       2.33186295
H        8.30633234      -0.16230573       1.61191569
H        6.32953937      -3.66479036       3.19605385
H        2.78506956       1.74172881       5.17538114
H        1.32281671       2.30931347       7.04152615
H       -0.18732450      -1.71255920       7.13381817
H        1.29564309      -2.32925265       5.29321972
C        8.53835553      -2.81396096       1.92155889
C        9.46255641      -3.49659397       1.55508800
Br      10.95691107      -4.60035380       0.96253557
