197
Properties=species:S:1:pos:R:3 pbc="F F F"
C        0.00000000       0.00000000       0.00000000
N        0.32037881       4.75768453      -4.53056864
C        1.38603015       4.30727326      -4.62631497
C        2.72868022       3.71285969      -4.76475514
H        2.64798053       2.79543934      -5.35790495
C        3.58244428       4.71587238      -5.52352305
O        4.25216892       5.59357684      -4.98601604
N        3.53620089       4.63761051      -6.88788808
C        3.34430687       3.43446774      -3.38003284
H        3.43720390       4.39660318      -2.85391458
C        2.50103182       2.50398452      -2.50665195
C        2.16104744       1.19872536      -2.90366275
C        1.36017217       0.39017556      -2.09284602
C        0.88157617       0.88157617      -0.88157617
C        1.19751772       2.17326177      -0.47172595
C        2.00245914       2.97937826      -1.27993170
C        4.72087516       2.80166885      -3.39589118
C        5.78542294       3.06433812      -2.48264639
C        5.78170054       3.96726303      -1.30217462
N        6.89337978       2.38084389      -2.78002983
N        6.55607971       1.61781606      -3.84467334
C        7.45370205       0.67463535      -4.36061819
S        9.05911330       0.61805349      -3.79734155
C        9.34011097      -0.73548225      -4.81144112
C        8.18626553      -1.06210926      -5.50329957
N        7.10521706      -0.21246653      -5.27665059
C        8.06547748      -2.25318702      -6.33835503
C        9.16188654      -2.78058885      -7.03825064
C        9.03917233      -3.97220132      -7.76105780
C        7.81725598      -4.63995299      -7.79219654
Br       7.66115566      -6.26789785      -8.73939908
C        6.71292830      -4.11988910      -7.12173429
C        6.83696105      -2.92751129      -6.40134624
C        5.25463684       1.87095530      -4.27308985
O        4.70189323       1.27785294      -5.33758649
H        3.02677517       3.92994972      -7.40010765
H        4.08575923       5.30687537      -7.41363440
H        2.51902722       0.79094711      -3.84656014
H        1.11415306      -0.61742108      -2.41731061
H        0.81847198       2.56566002       0.46832130
H        2.22610528       3.99103595      -0.94501736
H        5.65193924       5.00720109      -1.61561039
H        6.71838009       3.89523218      -0.73897561
H        4.96680504       3.70241772      -0.62146362
H       10.29807926      -1.23552483      -4.80279358
H       10.12648283      -2.27844747      -7.02976920
H        9.90291199      -4.37286868      -8.28593625
H        5.75782913      -4.63846147      -7.13991633
H        5.97236585      -2.54396391      -5.86316147
H        5.34711542       0.62273506      -5.69223514
N       -5.67937301      -0.68216291      -3.24709606
C       -5.33593682      -1.78980444      -3.19387711
C       -4.90974634      -3.19848598      -3.09806273
H       -5.14005289      -3.56829571      -2.09297622
C       -5.73072528      -3.98079757      -4.11031686
O       -5.38698865      -4.17107827      -5.27369487
N       -6.94324736      -4.44121681      -3.67723531
C       -3.40833837      -3.33405049      -3.41641860
H       -3.25109310      -2.98756464      -4.44906393
C       -2.50713561      -2.50226869      -2.50226399
C       -2.48957896      -2.66773740      -1.10611919
C       -1.67704028      -1.86529641      -0.30085706
C       -0.88157617      -0.88157617      -0.88157617
C       -0.88887735      -0.69336705      -2.26026105
C       -1.69717319      -1.49916392      -3.06543199
C       -2.84960336      -4.73969057      -3.32914126
C       -1.84998989      -5.30876311      -4.17365445
C       -1.10717448      -4.65904947      -5.28491423
N       -1.59499031      -6.58491403      -3.87434915
N       -2.36950958      -6.85113684      -2.79792269
C       -2.27290219      -8.08105884      -2.13499456
S       -1.33829296      -9.34182399      -2.79439139
C       -1.70168394     -10.29675520      -1.41763070
C       -2.50202556      -9.58527108      -0.54015919
N       -2.87260375      -8.31617867      -0.98061870
C       -2.86359726     -10.07393393       0.78688569
C       -3.02910785     -11.44232718       1.05188671
C       -3.28991346     -11.88972074       2.35160540
C       -3.39207347     -10.97001258       3.39258652
Br      -3.70918483     -11.57739192       5.15391987
C       -3.25248039      -9.60675425       3.14446116
C       -2.99378874      -9.16120859       1.84420133
C       -3.17501433      -5.76651024      -2.45715743
O       -4.06413542      -5.79557370      -1.45762354
H       -7.28362892      -4.34317201      -2.73003161
H       -7.51367248      -4.95197825      -4.34061827
H       -3.10357219      -3.42678618      -0.62617610
H       -1.67551611      -2.01418407       0.77565760
H       -0.27736121       0.07973835      -2.71818783
H       -1.69640209      -1.32540830      -4.14034821
H       -1.78985274      -4.38905542      -6.09584257
H       -0.33689786      -5.32165137      -5.69403866
H       -0.60749423      -3.75197581      -4.93121634
H       -1.27404282     -11.28314274      -1.30816246
H       -2.95412537     -12.18038898       0.25670979
H       -3.40168380     -12.95460408       2.54030832
H       -3.32797970      -8.88484198       3.95353770
H       -2.86420428      -8.09519725       1.66783812
H       -3.98816603      -6.66812510      -1.00579449
N       -5.25376484       0.41962557       3.93524157
C       -5.08729873       1.54208350       3.69023614
C       -4.88958104       2.96409729       3.35261671
H       -5.29898877       3.14884531       2.35349073
C       -5.68031027       3.77539153       4.36613792
O       -5.22203346       4.17783726       5.43189108
N       -6.99294789       4.00741409       4.06133749
C       -3.39633533       3.33667803       3.42579410
H       -3.05848492       3.16949746       4.45973928
C       -2.50704222       2.50164354       2.50298253
C       -2.69338418       2.46007168       1.10997970
C       -1.88140249       1.65850982       0.30328145
C       -0.88157617       0.88157617       0.88157617
C       -0.68406009       0.89958524       2.25886011
C       -1.49238799       1.70496908       3.06441204
C       -3.06708867       4.77397555       3.07737099
C       -2.06243119       5.58497957       3.68499670
C       -1.09547111       5.20716448       4.74850260
N       -2.03914312       6.82501849       3.19009188
N       -2.97611492       6.82782352       2.21463067
C       -3.14799056       7.94852612       1.39243892
S       -2.33294028       9.40219676       1.73937130
C       -3.00692504      10.08882397       0.32032083
C       -3.79936536       9.15886124      -0.33077076
N       -3.91893091       7.93175216       0.31871805
C       -4.39635710       9.39579771      -1.64150932
C       -4.79467304      10.67740759      -2.05253231
C       -5.28324660      10.89083454      -3.34605234
C       -5.38123091       9.82211277      -4.23384415
Br      -6.00786746      10.11706822      -5.99227879
C       -5.01125519       8.53972210      -3.83620381
C       -4.52495812       8.32791601      -2.54207814
C       -3.64967333       5.61049050       2.13851818
O       -4.65415864       5.37736326       1.28581076
H       -7.43381383       3.72776478       3.19525394
H       -7.54263851       4.53305018       4.73058031
H       -3.46914853       3.05483320       0.63255274
H       -2.04000927       1.64580355      -0.77177023
H        0.08852521       0.28747072       2.71686518
H       -1.32806437       1.69334621       4.14074802
H       -1.62106167       4.97450186       5.67918720
H       -0.38539075       6.01619465       4.95100249
H       -0.51692152       4.32950871       4.44425616
H       -2.74719799      11.09487023       0.02327979
H       -4.72806498      11.52821881      -1.37847923
H       -5.57426689      11.89295453      -3.65124186
H       -5.08253748       7.70263035      -4.52588385
H       -4.21788450       7.32515389      -2.25147498
H       -4.76643380       6.17611154       0.71954028
N        0.43902138      -3.86694814       5.30266246
C        1.56232189      -3.64023706       5.11705942
C        2.98597069      -3.32561547       4.89470890
H        3.19045890      -2.32358286       5.28728306
C        3.79414552      -4.33938412       5.68831007
O        4.17510991      -5.41704127       5.23961061
N        4.04899918      -4.01957985       6.99312046
C        3.33627794      -3.42494223       3.39758729
H        3.14988159      -4.46103568       3.07680440
C        2.50170138      -2.50290678       2.50706013
C        2.48225882      -1.10698505       2.67419168
C        1.68062102      -0.30043352       1.86213922
C        0.88157617      -0.88157617       0.88157617
C        0.87752195      -2.26160421       0.70337928
C        1.68294519      -3.06711494       1.51170898
C        4.77349323      -3.10157502       3.04336695
C        5.56159245      -3.73462961       2.03618540
C        5.15526834      -4.80608770       1.08978215
N        6.80797545      -3.25773410       1.98854394
N        6.83770747      -2.26940439       2.91145726
C        7.97212200      -1.46086551       3.05596808
S        9.40909457      -1.83974111       2.22567267
C       10.12498635      -0.42128505       2.86979844
C        9.21555025       0.25394635       3.66585193
N        7.98129832      -0.37633960       3.81176320
C        9.47923408       1.56941262       4.24082404
C       10.77198582       1.96774873       4.61531123
C       11.01038650       3.26481727       5.08245957
C        9.95568031       4.16895911       5.18277832
Br      10.28405219       5.93162440       5.78022910
C        8.66273698       3.78441035       4.83644686
C        8.42598065       2.48674514       4.37156048
C        5.63123219      -2.16662506       3.60082475
O        5.42431969      -1.29673490       4.59627807
H        3.78776795      -3.14353759       7.42552701
H        4.57296833      -4.68845782       7.54484285
H        3.09457972      -0.62723977       3.43471499
H        1.68519907       0.77680294       2.00564646
H        0.24816815      -2.72164092      -0.05399838
H        1.65394379      -4.14537036       1.36284444
H        4.91709165      -5.72593885       1.63172022
H        5.95123653      -5.02994973       0.37140162
H        4.27383630      -4.49754510       0.51930498
H       11.13130332      -0.14220188       2.59184282
H       11.61225835       1.28083224       4.54637845
H       12.02070230       3.55980414       5.35508140
H        7.83646599       4.48682150       4.90963948
H        7.41499915       2.20612637       4.08269063
H        6.23241997      -0.74033416       4.68933148
