149
Properties=species:S:1:pos:R:3 pbc="F F F"
C        0.00000000       0.00000000       0.00000000
C        0.88116190       0.88116190      -0.88116190
C        1.72443314       1.82042951      -0.29950208
C        2.54444911       2.60955137      -1.11312333
C        2.55239496       2.46201645      -2.51245702
C        1.64277802       1.55938091      -3.07111291
C        0.82953515       0.75279504      -2.26466675
N        3.38447639       3.32190272      -3.26535352
C        3.76568218       3.28775768      -4.63719340
N        3.36430535       2.26933834      -5.41979052
C        3.73801252       2.28002656      -6.70865385
N        4.47507558       3.24638338      -7.27698947
C        4.86845311       4.25892961      -6.50545665
C        5.64216615       5.25675546      -7.08518780
C        6.11872692       6.34473355      -6.35107775
C        5.80663396       6.45062034      -5.00429195
C        5.01744161       5.46966218      -4.40537116
C        4.54467703       4.35089164      -5.14665867
C        3.34555472       1.13481846      -7.55917705
C        2.58068786       0.06439808      -7.05522834
C        2.22926416      -1.02909293      -7.85619322
C        2.64115407      -1.07295456      -9.18389076
Br       2.18258787      -2.55390086     -10.26402136
C        3.39384054      -0.03311225      -9.71786478
C        3.73821861       1.05797994      -8.91163489
H        1.75166457       1.95108437       0.77877082
H        3.18328664       3.34960894      -0.63688227
H        1.54851740       1.45723181      -4.14640159
H        0.15917122       0.03665817      -2.73221375
H        4.18077204       3.60932395      -2.70667691
H        5.88698394       5.18323727      -8.14312871
H        6.72778956       7.10289838      -6.83670389
H        6.17124108       7.29376250      -4.42262739
H        4.76981286       5.58579843      -3.35340488
H        2.25501692       0.06998018      -6.01677898
H        1.64143489      -1.83726136      -7.42922208
H        3.72303942      -0.05754030     -10.75323323
H        4.33205056       1.85881787      -9.35116304
C       -0.88116190      -0.88116190      -0.88116190
C       -1.44635491      -0.35931250      -2.03869732
C       -2.23554150      -1.17956468      -2.85201762
C       -2.45671192      -2.53303699      -2.53711952
C       -1.93363508      -3.00855396      -1.33108281
C       -1.12843748      -2.20037737      -0.51818207
N       -3.29455983      -3.28469322      -3.39247959
C       -3.53988025      -4.68575998      -3.46499303
N       -2.86218297      -5.52778945      -2.66346178
C       -3.12989244      -6.83945129      -2.75734920
N       -4.03982540      -7.37060520      -3.58801783
C       -4.71646435      -6.53814713      -4.37822788
C       -5.65161957      -7.08315451      -5.24933533
C       -6.39228029      -6.29224055      -6.13001737
C       -6.20715414      -4.91814611      -6.13624599
C       -5.28610613      -4.34758548      -5.25878334
C       -4.51745305      -5.15251413      -4.37226015
C       -2.34822895      -7.77368674      -1.91763454
C       -1.36233322      -7.31727800      -1.02070305
C       -0.60834948      -8.20482745      -0.24318751
C       -0.82683898      -9.57412250      -0.35112878
Br       0.19903286     -10.77627196       0.68453074
C       -1.79410225     -10.06194430      -1.22254653
C       -2.54588931      -9.16808689      -1.99385724
H       -1.28518036       0.67843712      -2.31723488
H       -2.68141475      -0.74482733      -3.74353578
H       -2.13457114      -4.02035029      -0.99722938
H       -0.70930723      -2.61388781       0.39515190
H       -3.25967561      -2.90479082      -4.33230646
H       -5.80623242      -8.16049714      -5.24662036
H       -7.11020456      -6.75445221      -6.80273506
H       -6.77879386      -4.29195198      -6.81688513
H       -5.17385631      -3.26650125      -5.26865861
H       -1.16503170      -6.25121832      -0.92552607
H        0.14592983      -7.81365721       0.43433176
H       -1.97209292     -11.12983535      -1.31680408
H       -3.29527630      -9.57415751      -2.67259767
C       -0.88116190       0.88116190       0.88116190
C       -0.35415927       1.46125517       2.02895030
C       -1.16255284       2.28473018       2.81984079
C       -2.49772830       2.55880481       2.47033533
C       -3.01856652       1.90468439       1.35002094
C       -2.21310273       1.09164292       0.54225128
N       -3.25758806       3.37293268       3.34121190
C       -4.53052123       3.98874338       3.17136865
N       -5.17383249       3.88562732       1.99397439
C       -6.37493909       4.47300036       1.87875348
N       -6.98782199       5.14661908       2.86400737
C       -6.35543965       5.24475159       4.03264813
C       -6.97948434       5.95137538       5.05324969
C       -6.38438713       6.12584426       6.30430683
C       -5.13813875       5.57105920       6.55234829
C       -4.50065461       4.84351633       5.54830400
C       -5.09679619       4.67855798       4.26687316
C       -7.06089728       4.40921502       0.56943794
C       -6.49662639       3.73519594      -0.53150805
C       -7.13730136       3.69503430      -1.77597120
C       -8.36102297       4.33444024      -1.94337295
Br      -9.22161765       4.29615266      -3.62506194
C       -8.95098267       5.00637817      -0.87876777
C       -8.30580722       5.03911696       0.36290927
H        0.67665152       1.28001739       2.32061224
H       -0.73364349       2.71375212       3.72238225
H       -4.06138177       2.01593119       1.07483785
H       -2.64239847       0.62687045      -0.34122578
H       -2.64602805       4.00787194       3.84287290
H       -7.96018811       6.38541342       4.86774839
H       -6.89934564       6.69125428       7.07679191
H       -4.66524072       5.69945285       7.52293740
H       -3.53362906       4.40147299       5.77391412
H       -5.53500308       3.23592320      -0.42915019
H       -6.66755667       3.16794804      -2.60210910
H       -9.90579171       5.51133840      -0.99839775
H       -8.78560514       5.57532606       1.18110028
C        0.88116190      -0.88116190       0.88116190
C        1.99774080      -1.50698846       0.33963548
C        2.81217740      -2.29595983       1.15898658
C        2.53983432      -2.45696347       2.53007065
C        1.37160474      -1.87305627       3.02861085
C        0.55860406      -1.06768014       2.22071273
N        3.39198579      -3.29853042       3.28121643
C        3.50744160      -3.49627406       4.68691760
N        2.76224025      -2.75983790       5.53135606
C        2.89493967      -2.98391734       6.84783593
N        3.71171379      -3.90442029       7.38231435
C        4.44600034      -4.63903998       6.54779904
C        5.30277305      -5.58573274       7.09560362
C        6.12666597      -6.38615285       6.30171940
C        6.08869993      -6.25047300       4.92237333
C        5.22413321      -5.31854465       4.34979708
C        4.39592245      -4.48945376       5.15685113
C        2.11871833      -2.13895473       7.78187717
C        1.24123846      -1.13747636       7.32159945
C        0.52442229      -0.32411964       8.20782252
C        0.67504122      -0.49750942       9.57953963
Br      -0.27826145       0.60812954      10.77909935
C        1.52886601      -1.47831741      10.07140965
C        2.23933070      -2.28947585       9.17902689
H        2.24330167      -1.39330556      -0.71262911
H        3.67056189      -2.78968782       0.70952814
H        1.06842468      -2.02532881       4.05839731
H       -0.32330510      -0.60061012       2.65073812
H        4.31777580      -3.31196614       2.86703094
H        5.33436814      -5.70164546       8.17733632
H        6.78999258      -7.11151981       6.76587945
H        6.72492536      -6.86883125       4.29387435
H        5.19804091      -5.24533708       3.26563818
H        1.11381893      -0.97491123       6.25304593
H       -0.13977832       0.44026374       7.81343768
H        1.65612324      -1.62149791      11.14111120
H        2.90547591      -3.04848745       9.58806812
