157
Properties=species:S:1:pos:R:3 pbc="F F F"
C        0.00000000       0.00000000       0.00000000
C        0.88142218       0.88142218      -0.88142218
C        0.62912855       2.24704550      -0.96961906
C        1.43292879       3.05091326      -1.78554507
C        2.49085068       2.49362453      -2.51955674
C        2.73607121       1.12314472      -2.41159017
C        1.93284915       0.31667019      -1.59584017
N        3.24458403       3.36811390      -3.32690440
C        4.29927886       3.04055665      -4.15533055
O        4.75123266       1.92539941      -4.38133439
C        4.87032961       4.21280115      -4.87746320
C        5.37898674       5.28892325      -4.24583736
C        5.46050019       5.49891063      -2.76078610
N        5.93153960       6.29343222      -5.00893591
C        6.12631867       6.22883926      -6.35547892
S        6.87941801       7.45756312      -7.18126631
N        5.71084405       5.10714192      -6.98752886
C        4.91035906       4.05471566      -6.37844089
H        5.45293005       3.12536043      -6.58449284
C        3.54513273       4.03928369      -7.06073189
C        2.52331678       4.90691635      -6.61657249
C        1.27250593       4.94210750      -7.23912897
C        1.02126750       4.12970430      -8.33765152
C        2.02324247       3.28899958      -8.81915173
C        3.27526478       3.24612172      -8.19181135
Br       4.57488491       2.10728007      -8.98835896
H       -0.19021209       2.69601208      -0.41189586
H        1.21423362       4.11315518      -1.83961145
H        3.54680310       0.64241799      -2.95074831
H        2.14067459      -0.74852911      -1.53255952
H        2.95619115       4.33892072      -3.31808735
H        5.37560417       4.56627417      -2.19528261
H        4.66688325       6.17962672      -2.43219644
H        6.42310163       5.94172809      -2.48547893
H        6.31723164       7.11611258      -4.55466758
H        5.87118882       5.06155402      -7.98700523
H        2.69725412       5.58708739      -5.78458793
H        0.50122064       5.61390489      -6.87420917
H        0.05398845       4.16108243      -8.83176198
H        1.82095461       2.67675374      -9.69549763
C       -0.88142218      -0.88142218      -0.88142218
C       -0.80371249      -0.77535393      -2.26672668
C       -1.61949482      -1.57794709      -3.07194520
C       -2.51895474      -2.48828445      -2.49679276
C       -2.57681607      -2.58879844      -1.10519158
C       -1.76153333      -1.78646874      -0.29735744
N       -3.31360123      -3.25010676      -3.37589434
C       -4.28303833      -4.17340191      -3.03872583
O       -4.66856627      -4.47331992      -1.91608027
C       -4.94324524      -4.79632765      -4.22102107
C       -4.26765427      -5.48245244      -5.16364065
C       -2.78742383      -5.73520339      -5.19756970
N       -4.98310429      -6.06429012      -6.18651332
C       -6.34262207      -6.11479123      -6.25322355
S       -7.11994683      -6.91362222      -7.48467839
N       -7.03358351      -5.51567449      -5.25625683
C       -6.44757046      -4.66793676      -4.22800840
H       -6.80486068      -5.08015652      -3.27776612
C       -6.97153615      -3.24806355      -4.42554860
C       -6.33159363      -2.37898142      -5.33623057
C       -6.80418119      -1.08385754      -5.56570367
C       -7.94367237      -0.63487091      -4.91008003
C       -8.61562531      -1.48359715      -4.03217131
C       -8.13921286      -2.77954125      -3.79444374
Br      -9.18569434      -3.85776430      -2.62706529
H       -0.11599270      -0.07117203      -2.73053112
H       -1.54217367      -1.47470210      -4.15012448
H       -3.24840224      -3.28278846      -0.60877870
H       -1.82882896      -1.87956009       0.78368405
H       -3.17549707      -3.07405866      -4.36364349
H       -2.31226290      -5.60396011      -4.22093794
H       -2.30590369      -5.05933366      -5.91346905
H       -2.57816029      -6.76386776      -5.50828062
H       -4.49454903      -6.58282463      -6.91063814
H       -8.04421204      -5.56901302      -5.30652302
H       -5.46026008      -2.71010311      -5.89856626
H       -6.29012358      -0.43271230      -6.26649882
H       -8.32124841       0.36748176      -5.09306621
H       -9.52085550      -1.12757242      -3.54477807
C       -0.88142218       0.88142218       0.88142218
C       -2.24358354       0.61675122       0.98545834
C       -3.05064361       1.43196474       1.78677876
C       -2.50103128       2.51733158       2.48566908
C       -1.13053906       2.76250776       2.37775928
C       -0.32094971       1.94814944       1.57626036
N       -3.38269575       3.29671763       3.26018895
C       -3.07513084       4.42288986       3.99714536
O       -1.99069998       4.98469788       4.08256860
C       -4.25256282       5.01248711       4.69554403
C       -4.99542804       4.32967093       5.58864839
C       -4.78508705       2.90840965       6.02670023
N       -6.02939623       4.98754761       6.21696390
C       -6.28333663       6.32115985       6.10614037
S       -7.50381861       7.04479246       6.96963638
N       -5.47844030       7.03832483       5.28874969
C       -4.49097866       6.47010393       4.38243302
H       -3.55772144       6.99872437       4.60633751
C       -4.93748254       6.75640908       2.95125667
C       -5.84852383       5.88978939       2.30849240
C       -6.30342227       6.13953278       1.01078735
C       -5.87912876       7.27587959       0.33361496
C       -5.00739338       8.16691250       0.95708789
C       -4.54374056       7.91456342       2.25489386
Br      -3.41277929       9.24235780       3.01538684
H       -2.68843984      -0.21728469       0.44654070
H       -4.11098506       1.20647493       1.84954025
H       -0.65263205       3.58332084       2.90401651
H        0.74236861       2.16269986       1.50437375
H       -4.35465059       3.01242918       3.24611946
H       -3.77460828       2.54520872       5.81734395
H       -5.50343962       2.24935217       5.52591461
H       -4.93155301       2.81148340       7.10727225
H       -6.60549795       4.49166186       6.89085199
H       -5.66590108       8.03187452       5.22197248
H       -6.23438151       5.01148587       2.82306206
H       -6.99919403       5.45396158       0.53617909
H       -6.23817644       7.48009777      -0.67144135
H       -4.70308022       9.06555785       0.42456791
C        0.88142218      -0.88142218       0.88142218
C        1.43140962      -2.05028723       0.36409625
C        2.23132296      -2.86097762       1.17708653
C        2.48312329      -2.50914798       2.51176068
C        1.93142264      -1.32773298       3.01165048
C        1.13042136      -0.51497437       2.19996378
N        3.28760785      -3.38485725       3.26713723
C        3.63596266      -3.26184729       4.59735612
O        3.27721408      -2.39583950       5.38491287
C        4.49717903      -4.37483143       5.08858350
C        5.69497921      -4.67147747       4.54729068
C        6.35603037      -3.96706031       3.39710625
N        6.43428094      -5.68612571       5.11350109
C        6.10996299      -6.33344791       6.26722595
S        7.10778298      -7.48887267       6.92159179
N        4.95711176      -5.97225562       6.87614744
C        3.95258058      -5.08831856       6.30261647
H        3.77392275      -4.32287927       7.06598131
C        2.68587073      -5.90331072       6.05596685
C        2.54270987      -6.64269488       4.86140088
C        1.41080744      -7.42542034       4.61751462
C        0.40617356      -7.50912338       5.57332636
C        0.53736170      -6.81767853       6.77635355
C        1.66739771      -6.02602328       7.01977685
Br       1.75458111      -5.18942530       8.72651753
H        1.24270290      -2.34202444      -0.66703149
H        2.64677765      -3.76924035       0.75098225
H        2.10168613      -1.00418372       4.03409955
H        0.70802361       0.39721345       2.61389484
H        3.61889938      -4.21075168       2.78354816
H        5.94858179      -2.96708031       3.22149886
H        6.24340301      -4.55575986       2.47954354
H        7.42617426      -3.83661223       3.58752218
H        7.33831705      -5.93006400       4.71963075
H        4.72969451      -6.44941869       7.74063488
H        3.32776508      -6.63388272       4.10728165
H        1.32187491      -7.97962595       3.68783385
H       -0.47090500      -8.12473340       5.39300445
H       -0.24528119      -6.91228940       7.52619778
