165
Properties=species:S:1:pos:R:3 pbc="F F F"
C        0.00000000       0.00000000       0.00000000
C        0.88142218       0.88142218      -0.88142218
C        0.62912855       2.24704550      -0.96961906
C        1.43292879       3.05091326      -1.78554507
C        2.49085068       2.49362453      -2.51955674
C        2.73607121       1.12314472      -2.41159017
C        1.93284915       0.31667019      -1.59584017
N        3.24458403       3.36811390      -3.32690440
C        4.29927886       3.04055665      -4.15533055
O        4.75123266       1.92539941      -4.38133439
C        4.87032961       4.21280115      -4.87746320
C        5.37898674       5.28892325      -4.24583736
C        5.46050019       5.49891063      -2.76078610
N        5.93153960       6.29343222      -5.00893591
C        6.12631867       6.22883926      -6.35547892
S        6.87941801       7.45756312      -7.18126631
N        5.71084405       5.10714192      -6.98752886
C        4.91035906       4.05471566      -6.37844089
H        5.45293005       3.12536043      -6.58449284
C        3.54513273       4.03928369      -7.06073189
C        2.52331678       4.90691635      -6.61657249
C        1.27250593       4.94210750      -7.23912897
C        1.02126750       4.12970430      -8.33765152
C        2.02324247       3.28899958      -8.81915173
C        3.27526478       3.24612172      -8.19181135
H       -0.19021209       2.69601208      -0.41189586
H        1.21423362       4.11315518      -1.83961145
H        3.54680310       0.64241799      -2.95074831
H        2.14067459      -0.74852911      -1.53255952
H        2.95619115       4.33892072      -3.31808735
H        5.37560417       4.56627417      -2.19528261
H        4.66688325       6.17962672      -2.43219644
H        6.42310163       5.94172809      -2.48547893
H        6.31723164       7.11611258      -4.55466758
H        5.87118882       5.06155402      -7.98700523
H        2.69725412       5.58708739      -5.78458793
H        0.50122064       5.61390489      -6.87420917
H        0.05398845       4.16108243      -8.83176198
H        1.82095461       2.67675374      -9.69549763
C        4.25881602       2.38424747      -8.79463780
C        5.08254019       1.66242779      -9.29950496
Br       6.41443250       0.49530641     -10.11583244
C       -0.88142218      -0.88142218      -0.88142218
C       -0.45814000      -1.22628602      -2.16136708
C       -1.27230912      -2.02664755      -2.97043044
C       -2.51464999      -2.48383213      -2.50554982
C       -2.91934796      -2.13647766      -1.21498047
C       -2.10632331      -1.33544211      -0.40359409
N       -3.27978139      -3.27407045      -3.38575049
C       -4.53592413      -3.80010779      -3.15913415
O       -5.24246439      -3.64395776      -2.17154431
C       -5.06447933      -4.58602952      -4.31008510
C       -4.43397011      -5.66438005      -4.81539719
C       -3.13666182      -6.24904634      -4.33448876
N       -5.03764887      -6.35073470      -5.84552416
C       -6.29332242      -6.10479344      -6.31252099
S       -6.97267592      -7.04127900      -7.50429252
N       -6.97722932      -5.08658711      -5.74169840
C       -6.41276432      -4.12321497      -4.80753632
H       -7.08797616      -4.13016280      -3.94464437
C       -6.41564190      -2.75187670      -5.47762970
C       -5.34836638      -2.37595562      -6.32248362
C       -5.33470776      -1.14145139      -6.97758325
C       -6.40029446      -0.26331807      -6.82501078
C       -7.48334197      -0.62312216      -6.02492964
C       -7.49562049      -1.85673263      -5.36084473
H        0.49977948      -0.87658033      -2.54089500
H       -0.92097045      -2.27982203      -3.96620776
H       -3.86674987      -2.47048360      -0.80273594
H       -2.44594773      -1.07432104       0.59556377
H       -2.87079923      -3.44626719      -4.29613280
H       -2.88246253      -5.93768009      -3.31701833
H       -2.31980916      -5.95533527      -5.00356197
H       -3.18738946      -7.34253193      -4.32038727
H       -4.57877529      -7.16422436      -6.24501215
H       -7.91535298      -4.91855752      -6.08583758
H       -4.51575570      -3.05487711      -6.49829664
H       -4.49886790      -0.87343296      -7.61703384
H       -6.39939906       0.69318770      -7.34062149
H       -8.32236193       0.06361511      -5.93445916
C       -8.68075377      -2.15696894      -4.59997859
C       -9.67330289      -2.40841684      -3.96275320
Br     -11.27817087      -2.81498684      -2.93241364
C       -0.88142218       0.88142218       0.88142218
C       -2.23829224       1.00770588       0.59979498
C       -3.04187975       1.82362685       1.40388051
C       -2.49295966       2.51960665       2.49146564
C       -1.13152528       2.37361265       2.76566817
C       -0.32534204       1.55779256       1.96222490
N       -3.36614401       3.32978156       3.24367675
C       -3.04457159       4.12563326       4.32496121
O       -1.93549292       4.31468948       4.80778406
C       -4.21299594       4.86190496       4.88569306
C       -5.31515824       4.24432662       5.35426249
C       -5.56127678       2.76317135       5.39574879
N       -6.31455454       5.01800138       5.90135181
C       -6.22348757       6.35777878       6.12937050
S       -7.45027155       7.19477767       6.87319822
N       -5.07796946       6.97254954       5.75499583
C       -4.02125805       6.35739702       4.96486055
H       -3.10048445       6.52881350       5.53348537
C       -3.95777212       7.07049853       3.61687765
C       -4.81102239       6.67071952       2.56506371
C       -4.80221888       7.32267270       1.32885082
C       -3.95893124       8.40718221       1.12250986
C       -3.13126194       8.84537711       2.15475472
C       -3.13252215       8.18843282       3.39224288
H       -2.68051945       0.47984235      -0.24266595
H       -4.09711786       1.90784559       1.16203680
H       -0.65778067       2.88236889       3.59981984
H        0.73289603       1.46454583       2.19305521
H       -4.32980144       3.35059893       2.93279885
H       -4.64021026       2.17787679       5.31907390
H       -6.23044025       2.46920381       4.57906235
H       -6.03298513       2.47624538       6.34107815
H       -7.15640637       4.57452976       6.25707567
H       -5.01310287       7.96669545       5.93994976
H       -5.51416219       5.85126049       2.70350675
H       -5.46383635       6.99166785       0.53383050
H       -3.95599219       8.92411735       0.16672331
H       -2.49431440       9.71143518       1.98745640
C       -2.28045536       8.74781257       4.40943336
C       -1.56684943       9.21629311       5.26133040
Br      -0.41300898       9.97378653       6.63877584
C        0.88142218      -0.88142218       0.88142218
C        2.24986682      -0.64018756       0.95573872
C        3.05667221      -1.45550275       1.75721215
C        2.50045010      -2.51760556       2.48597629
C        1.12396028      -2.73926807       2.40757775
C        0.31460760      -1.92476418       1.60598773
N        3.38198991      -3.29897526       3.25863716
C        3.06769660      -4.40566214       4.02180732
O        1.97499384      -4.94563309       4.13733952
C        4.24694637      -5.00417216       4.70947542
C        5.01853135      -4.31910357       5.57611243
C        4.84223358      -2.88645506       5.99150828
N        6.05182498      -4.98448669       6.19759606
C        6.27936525      -6.32437065       6.10690095
S        7.50227125      -7.05466507       6.96131113
N        5.44654811      -7.04124969       5.31771702
C        4.45296320      -6.47141124       4.41914117
H        3.51455279      -6.97848768       4.66974286
C        4.86758956      -6.79192912       2.98562962
C        5.78217929      -5.95417564       2.31045071
C        6.20833561      -6.23587152       1.00953527
C        5.75096533      -7.37629246       0.36136552
C        4.87486668      -8.23953018       1.01699691
C        4.44000821      -7.95506544       2.31812421
H        2.69976017       0.17552032       0.39345600
H        4.12192114      -1.24859447       1.79648464
H        0.64103332      -3.54137549       2.95756059
H       -0.75358727      -2.12084760       1.55744467
H        4.35852808      -3.03304815       3.22162300
H        3.83482369      -2.50846187       5.79387539
H        5.56305434      -2.25004057       5.46561149
H        5.01043554      -2.77261765       7.06725548
H        6.64924018      -4.48718348       6.85158814
H        5.61463372      -8.03915266       5.26596170
H        6.19341948      -5.07395686       2.80155310
H        6.90755055      -5.57205764       0.50972652
H        6.08755394      -7.60537859      -0.64609968
H        4.54444085      -9.14192143       0.50684370
C        3.57677008      -8.93327056       2.92766065
C        2.85380815      -9.75251735       3.43814743
Br       1.68483986     -11.07717012       4.26356137
