178
Properties=species:S:1:pos:R:3 pbc="F F F"
C        1.79132620       1.79132620      -1.79132620
C        1.53903257       3.15694952      -1.87952308
C        2.34283281       3.96081728      -2.69544909
C        3.40075470       3.40352856      -3.42946076
C        3.64597524       2.03304874      -3.32149419
C        2.84275317       1.22657421      -2.50574419
N        4.15448805       4.27801792      -4.23680842
C        5.20918288       3.95046068      -5.06523458
O        5.66113668       2.83530343      -5.29123842
C        5.78023363       5.12270517      -5.78736722
C        6.28889077       6.19882728      -5.15574138
C        6.37040422       6.40881466      -3.67069013
N        6.84144363       7.20333624      -5.91883993
C        7.03622270       7.13874328      -7.26538294
S        7.78932203       8.36746715      -8.09117033
N        6.62074807       6.01704594      -7.89743289
C        5.82026309       4.96461969      -7.28834492
H        6.36283407       4.03526446      -7.49439686
C        4.45503675       4.94918772      -7.97063591
C        3.43322080       5.81682038      -7.52647652
C        2.18240995       5.85201152      -8.14903299
C        1.93117152       5.03960832      -9.24755554
C        2.93314649       4.19890360      -9.72905575
C        4.18516880       4.15602574      -9.10171538
Br       5.48478893       3.01718409      -9.89826298
H        0.71969194       3.60591611      -1.32179988
H        2.12413764       5.02305920      -2.74951548
H        4.45670713       1.55232201      -3.86065233
H        3.05057861       0.16137492      -2.44246354
H        3.86609517       5.24882475      -4.22799138
H        6.28550819       5.47617819      -3.10518664
H        5.57678727       7.08953074      -3.34210046
H        7.33300566       6.85163212      -3.39538296
H        7.22713566       8.02601660      -5.46457161
H        6.78109285       5.97145804      -8.89690926
H        3.60715814       6.49699142      -6.69449195
H        1.41112466       6.52380892      -7.78411319
H        0.96389247       5.07098645      -9.74166600
H        2.73085864       3.58665777     -10.60540165
C       -1.79132620      -1.79132620      -1.79132620
C       -2.97005184      -1.27989603      -2.32555731
C       -3.78061981      -2.09298622      -3.12549316
C       -3.41878372      -3.42190622      -3.39305407
C       -2.22765514      -3.91580003      -2.85706300
C       -1.41499681      -3.10400402      -2.05607075
N       -4.29494296      -4.17795487      -4.19641657
C       -4.16285332      -5.50366858      -4.55835623
O       -3.28624147      -6.28636927      -4.21506779
C       -5.27925243      -5.99728884      -5.41376476
C       -5.59213176      -5.44769801      -6.60362967
C       -4.90465846      -4.28486831      -7.26038223
N       -6.60836389      -6.01650523      -7.33875069
C       -7.24187162      -7.17921173      -7.01926557
S       -8.40047306      -7.83508525      -8.01240120
N       -6.86424492      -7.79540260      -5.87557937
C       -5.97629371      -7.22296482      -4.87396916
H       -5.20215489      -7.98074576      -4.70959475
C       -6.78162899      -6.99574502      -3.59748637
C       -7.53070299      -5.80954564      -3.43626907
C       -8.30501271      -5.58353417      -2.29490759
C       -8.37040999      -6.54937972      -1.29854568
C       -7.66908026      -7.74460028      -1.44742530
C       -6.88582833      -7.97008246      -2.58699914
Br      -6.03426642      -9.66802041      -2.69794918
H       -3.26957261      -0.25334646      -2.12448885
H       -4.69665703      -1.67157596      -3.52847933
H       -1.89623277      -4.93354473      -3.03990397
H       -0.49508283      -3.51326981      -1.64606443
H       -5.12836390      -3.69907434      -4.51547306
H       -3.90257645      -4.10368496      -6.86061161
H       -5.50077412      -3.37395157      -7.13369279
H       -4.78248693      -4.46410374      -8.33343007
H       -6.86441619      -5.61655866      -8.23674902
H       -7.33120369      -8.66640129      -5.65185517
H       -7.53625767      -5.04811694      -4.21426690
H       -8.86697218      -4.65995688      -2.19211771
H       -8.97941768      -6.38299302      -0.41413423
H       -7.74937914      -8.50253642      -0.67100249
C       -1.79132620       1.79132620       1.79132620
C       -2.83986157       1.22547133       2.51017227
C       -3.65183554       2.03728763       3.30997601
C       -3.42183777       3.41886028       3.39304597
C       -2.35918712       3.96848624       2.67284482
C       -1.54541032       3.15804312       1.87161814
N       -4.29156648       4.16788592       4.20986199
C       -4.27823493       5.53331157       4.41333163
O       -3.53982716       6.35782456       3.89002680
C       -5.34911949       6.00412973       5.33705681
C       -5.46953530       5.56771012       6.60621401
C       -4.58601230       4.56787542       7.29602128
N       -6.46285142       6.10919462       7.39157377
C       -7.25781307       7.15396817       7.02856769
S       -8.37494813       7.79671981       8.07629157
N       -7.07640877       7.66832846       5.79048966
C       -6.23721418       7.07870354       4.75730998
H       -5.57840046       7.88880702       4.42528791
C       -7.13943987       6.62092850       3.61449201
C       -7.75745307       5.35226941       3.66679522
C       -8.61505623       4.91472355       2.65367469
C       -8.89666723       5.74533148       1.57633667
C       -8.32815163       7.01646823       1.51648599
C       -7.46184183       7.45421697       2.52685113
Br      -6.80767484       9.23312112       2.35944006
H       -3.03670705       0.15681373       2.45388715
H       -4.46517010       1.57245349       3.85908873
H       -2.13171051       5.02965156       2.70831941
H       -0.72756118       3.61046764       1.31638825
H       -5.02536114       3.64511697       4.67243319
H       -3.61692894       4.44693787       6.80300621
H       -5.08152597       3.59111591       7.33577660
H       -4.37415366       4.88308219       8.32278488
H       -6.57513765       5.79239366       8.35019256
H       -7.66277786       8.45360148       5.53308082
H       -7.59263096       4.69061177       4.51539878
H       -9.07285856       3.93182329       2.71436492
H       -9.57112732       5.41398191       0.79143569
H       -8.57719258       7.66588776       0.67983771
C        1.79132620      -1.79132620       1.79132620
C        1.28316920      -2.97527688       2.31705909
C        2.09040339      -3.77649677       3.13219902
C        3.40831423      -3.39708650       3.42834329
C        3.90530391      -2.21089994       2.88431432
C        3.09922784      -1.40737247       2.06847128
N        4.15097143      -4.25186863       4.26647434
C        5.44264090      -4.06543336       4.71680388
O        6.17195874      -3.10360517       4.51211462
C        5.92560190      -5.16481685       5.59988728
C        5.98624788      -6.45183193       5.20537962
C        5.59421120      -6.99479416       3.86090364
N        6.50015637      -7.38042789       6.08303555
C        7.07904844      -7.08197853       7.27932195
S        7.74913596      -8.26327015       8.23555340
N        7.11545257      -5.77882425       7.64095007
C        6.42432490      -4.70140551       6.94749728
H        7.19206319      -3.94316184       6.75727037
C        5.34717687      -4.14997982       7.87770368
C        4.07775626      -4.76620575       7.93255570
C        3.07940067      -4.30760389       8.79644991
C        3.33437714      -3.23822367       9.64573458
C        4.59002423      -2.63335427       9.63772736
C        5.58982593      -3.08616731       8.76691668
Br       7.27794639      -2.21893351       8.90335611
H        0.26174706      -3.28298269       2.10267817
H        1.67004291      -4.69420978       3.53245964
H        4.92033260      -1.87514193       3.07420694
H        3.50746455      -0.48581574       1.66113679
H        3.66758996      -5.07810463       4.59721670
H        5.55743180      -6.22322766       3.08621356
H        4.61145102      -7.47622440       3.92074306
H        6.31805332      -7.74199144       3.51997597
H        6.55169488      -8.35719673       5.80883226
H        7.55934566      -5.56398403       8.52613047
H        3.85524402      -5.63204581       7.31135168
H        2.10910076      -4.79497890       8.81496711
H        2.56502405      -2.88470155      10.32681933
H        4.78387791      -1.81319470      10.32584545
C       -0.00445707       0.01189536      -1.78238275
H       -0.66409135       0.67374010      -2.43557963
H        0.65740317      -0.63156657      -2.45157240
C       -0.90989263      -0.90692880      -0.91072765
C        0.90977584       0.90977584      -0.90977584
C       -0.00465871       1.77757030       0.00794375
H       -0.66225468       2.44313916      -0.64384735
H        0.64322798       2.43503045       0.67728295
C       -1.78241447       0.00034974      -0.00472694
H       -2.45427497      -0.65498947       0.64260836
H       -2.43311707       0.67328779      -0.65473579
C       -0.91132561       0.90220522       0.91563759
C       -0.01476271      -0.02253852       1.78660255
H       -0.67934791      -0.69751639       2.42135241
H        0.63392994       0.61504881       2.47327442
C        0.01484550      -1.77751727      -0.01636693
H        0.67870853      -2.42144646      -0.68295456
H       -0.62264859      -2.45592969       0.64226336
C        1.78714474       0.01002794       0.00389507
H        2.44202412       0.67113390       0.66197326
H        2.45385902      -0.65136977      -0.64189061
C        0.91606151      -0.90478549       0.90901405
