150
Properties=species:S:1:pos:R:3 pbc="F F F"
C        1.79072684       1.79072684      -1.79072684
C        1.34946743       3.05318135      -2.17114016
C        2.16263050       3.85651052      -2.97995014
C        3.40872693       3.42981220      -3.42055943
N        4.15228347       4.24270230      -4.20407830
C        5.36621203       3.82446454      -4.64176008
C        6.13534887       4.75300479      -5.52931021
C        5.86081190       2.59153162      -4.28591700
C        7.10350535       1.89412419      -4.67726834
C        7.08085122       0.74051806      -3.65434192
H        7.63677285       1.05880261      -2.75905741
O        5.69592280       0.56088441      -3.22672714
C        5.09658698       1.77008921      -3.48412986
C        3.84227042       2.14961677      -3.02457045
C        3.03347585       1.33018327      -2.21150855
C        7.66020488      -0.58785135      -4.18288907
C        6.78138742      -1.29381821      -5.21348500
Cl       9.30483629      -0.34554375      -4.86021142
H        0.38075372       3.42643506      -1.84929077
H        1.81286040       4.84294199      -3.27588634
H        6.32032431       4.28379064      -6.50033103
H        7.09220509       5.01475919      -5.06679843
H        5.57715360       5.67905628      -5.70059023
H        7.99859178       2.51223155      -4.56239216
H        7.02153536       1.55019682      -5.71253903
H        3.38476799       0.34458312      -1.91504537
H        5.78712865      -1.51985548      -4.81181872
H        7.21990629      -2.24704894      -5.53277050
H        6.64252490      -0.68296122      -6.11143089
C        7.81258035      -1.48754080      -3.06891393
C        7.94019480      -2.24103072      -2.13595976
Br       8.14653658      -3.45936019      -0.62745176
C       -1.79072684      -1.79072684      -1.79072684
C       -2.43583364      -2.89426722      -1.24368808
C       -3.24260317      -3.69882142      -2.05766658
C       -3.42164678      -3.42915938      -3.40829239
N       -4.20735424      -4.24073552      -4.15097430
C       -4.37709170      -3.98336361      -5.47198135
C       -5.23476027      -4.92984386      -6.25305974
C       -3.77559285      -2.89791514      -6.06475253
C       -3.75456730      -2.44808659      -7.47224399
C       -3.15433931      -1.04070483      -7.28066706
H       -3.98064440      -0.32539793      -7.14859053
O       -2.41926728      -1.04565942      -6.01860766
C       -2.97802968      -2.07393678      -5.29883959
C       -2.76338650      -2.30642389      -3.94664726
C       -1.94753543      -1.48866491      -3.13896732
C       -2.24285083      -0.57689020      -8.43550158
C       -0.89783794      -1.29716857      -8.50604770
Cl      -3.08515093      -0.72015003     -10.01420299
H       -2.32292858      -3.14207693      -0.19147403
H       -3.74445292      -4.56162848      -1.62560733
H       -4.65487801      -5.39174603      -7.05782195
H       -6.09060585      -4.40009551      -6.68306135
H       -5.61868076      -5.72823230      -5.60988705
H       -4.74967821      -2.39979054      -7.92374673
H       -3.11301209      -3.11087586      -8.06038326
H       -1.44730893      -0.62539823      -3.57168932
H       -0.32332665      -1.17490232      -7.58086291
H       -0.27467350      -0.90975689      -9.32119746
H       -1.02388684      -2.37144967      -8.67565806
C       -1.96395461       0.82415593      -8.25415479
C       -1.73037903       1.99753206      -8.10227686
Br      -1.35270707       3.89478202      -7.85670309
C       -1.79072684       1.79072684       1.79072684
C       -1.33051399       3.03430848       2.20896647
C       -2.14379520       3.83773803       3.01755793
C       -3.40852968       3.42954212       3.42102675
N       -4.15146130       4.24152100       4.20608177
C       -5.38379240       3.84112389       4.60752037
C       -6.15208796       4.76698675       5.49858916
C       -5.89722286       2.62770700       4.21333067
C       -7.16339200       1.94994008       4.56156581
C       -7.14311305       0.81884436       3.51375380
H       -7.67168521       1.16909587       2.61385179
O       -5.75321385       0.61760648       3.11271402
C       -5.13341081       1.80711716       3.41027808
C       -3.86107027       2.16839700       2.98699037
C       -3.05241344       1.34906240       2.17369184
C       -7.76319575      -0.50746999       3.99951685
C       -6.92343176      -1.25542825       5.03305070
Cl      -9.41689787      -0.24324172       4.64584781
H       -0.34686346       3.39270411       1.91691197
H       -1.77918884       4.80933968       3.34316020
H       -6.36905980       4.28084348       6.45454271
H       -7.09234922       5.06023477       5.02117872
H       -5.57768703       5.67629698       5.70281610
H       -8.04189387       2.59034973       4.44097188
H       -7.11224201       1.58162151       5.59040769
H       -3.41851101       0.37833738       1.84754809
H       -5.92561042      -1.49484978       4.64833124
H       -7.38982001      -2.20535638       5.32116422
H       -6.79138090      -0.66769568       5.94730936
C       -7.91024427      -1.37884824       2.86255745
C       -8.03339741      -2.10862753       1.91035395
Br      -8.23252562      -3.28861891       0.37072143
C        1.79072684      -1.79072684       1.79072684
C        2.72888369      -2.63602599       1.20887925
C        3.53399420      -3.44212213       2.02297484
C        3.42541220      -3.42618264       3.40750371
N        4.22358914      -4.22810948       4.14736545
C        4.11349316      -4.21957334       5.49937016
C        5.00204140      -5.14736707       6.26825540
C        3.21340705      -3.39369829       6.13115518
C        2.86569918      -3.24905838       7.56014032
C        2.03303806      -1.95314636       7.48952678
H        2.70708734      -1.09767279       7.64987274
O        1.53661901      -1.82497377       6.12194158
C        2.40517151      -2.57707885       5.36855569
C        2.47212543      -2.56280919       3.98152302
C        1.65451637      -1.74677666       3.17387464
C        0.86584502      -1.89307872       8.49631887
C       -0.29726894      -2.82786209       8.17046106
Cl       1.44268739      -2.21053871      10.16627787
H        2.84677723      -2.68038101       0.12932130
H        4.26578600      -4.10256236       1.56334036
H        4.40142800      -5.85363161       6.84938638
H        5.64798255      -4.58007182       6.94570834
H        5.64239945      -5.72257915       5.59182152
H        3.74013780      -3.12722355       8.20585414
H        2.28271478      -4.11547902       7.88607740
H        0.92408602      -1.08575532       3.63455514
H       -0.72113379      -2.61842788       7.18179780
H       -1.11382585      -2.72416653       8.89528718
H        0.01400469      -3.87751122       8.17947867
C        0.34274165      -0.55145617       8.49975566
C       -0.09535742       0.57215271       8.50263397
Br      -0.80372657       2.38893324       8.50728796
C       -0.00445707       0.01189536      -1.78238275
H       -0.66409135       0.67374010      -2.43557963
H        0.65740317      -0.63156657      -2.45157240
C       -0.90989263      -0.90692880      -0.91072765
C        0.90977584       0.90977584      -0.90977584
C       -0.00465871       1.77757030       0.00794375
H       -0.66225468       2.44313916      -0.64384735
H        0.64322798       2.43503045       0.67728295
C       -1.78241447       0.00034974      -0.00472694
H       -2.45427497      -0.65498947       0.64260836
H       -2.43311707       0.67328779      -0.65473579
C       -0.91132561       0.90220522       0.91563759
C       -0.01476271      -0.02253852       1.78660255
H       -0.67934791      -0.69751639       2.42135241
H        0.63392994       0.61504881       2.47327442
C        0.01484550      -1.77751727      -0.01636693
H        0.67870853      -2.42144646      -0.68295456
H       -0.62264859      -2.45592969       0.64226336
C        1.78714474       0.01002794       0.00389507
H        2.44202412       0.67113390       0.66197326
H        2.45385902      -0.65136977      -0.64189061
C        0.91606151      -0.90478549       0.90901405
