157
Properties=species:S:1:pos:R:3 pbc="F F F"
C        0.00000000       0.00000000       0.00000000
C        0.88131232       0.88131232      -0.88131232
C        2.05686170       0.36853435      -1.41807351
C        2.86554827       1.18087761      -2.21993022
C        2.50364942       2.50102105      -2.51653778
C        1.31727207       2.99781029      -1.95455020
C        0.50842377       2.19641245      -1.14141551
N        3.30267370       3.36010510      -3.27715984
C        4.66101195       3.35086421      -3.57991596
N        5.07435143       4.30539095      -4.42011294
C        6.38492536       4.41926411      -4.65523028
C        6.80419273       5.41257115      -5.53315746
C        8.15556662       5.63679974      -5.80823348
C        9.11407625       4.86364607      -5.17281986
C        8.72353609       3.86292699      -4.28742693
C        7.34671055       3.60549590      -4.04583223
C        6.81659544       2.60120886      -3.22157988
N        5.48946289       2.48860886      -2.99056156
C        7.60495190       1.61334991      -2.45458418
C        7.41524462       1.55192579      -1.05555408
C        8.09910579       0.63166226      -0.25763337
C        9.00111541      -0.25076290      -0.83937405
C        9.19374486      -0.23003868      -2.21958804
C        8.48721870       0.67597176      -3.02446678
Cl       8.71005308       0.52772114      -4.73605567
H        2.35989348      -0.65608798      -1.22296544
H        3.77697320       0.75246372      -2.63009722
H        1.01865967       4.02800184      -2.13157044
H       -0.40125279       2.61042549      -0.71446658
H        2.86234289       4.16970799      -3.68669507
H        6.05504669       6.03499739      -6.01902534
H        8.43829641       6.41909414      -6.50706821
H        9.48715554       3.27459001      -3.78764210
H        6.69945616       2.22307500      -0.58025575
H        7.91511260       0.60081849       0.81413181
H        9.53671932      -0.96869150      -0.22283587
H        9.88322622      -0.94082075      -2.66868674
C       10.51184849       5.09206784      -5.43292803
C       11.68248274       5.28337107      -5.65076863
Br      13.57529931       5.59269222      -6.00299845
C       -0.88131232      -0.88131232      -0.88131232
C       -0.79947586      -0.77858592      -2.26540778
C       -1.61324945      -1.58302981      -3.07007685
C       -2.49769668      -2.51351030      -2.51000127
C       -2.56844339      -2.59087719      -1.11031199
C       -1.76718863      -1.78160446      -0.29745864
N       -3.35904177      -3.30582780      -3.27506908
C       -3.85374354      -3.16935134      -4.56869723
N       -4.60621772      -4.18202715      -5.01161045
C       -5.20474287      -4.05500716      -6.19966973
C       -5.98203676      -5.11502126      -6.65286332
C       -6.68097912      -5.05828038      -7.86134034
C       -6.61998262      -3.90436121      -8.62619835
C       -5.85098189      -2.82648891      -8.19641921
C       -5.10301149      -2.90472051      -6.99030669
C       -4.25277365      -1.91765854      -6.46895199
N       -3.64696681      -2.05349566      -5.26817084
C       -3.97249248      -0.60716976      -7.09322375
C       -4.24031662       0.55916673      -6.34157460
C       -3.98127082       1.83663580      -6.84376640
C       -3.45218888       1.98272683      -8.12026451
C       -3.15630543       0.85096318      -8.87795197
C       -3.39134191      -0.43278021      -8.36353512
Cl      -2.86896413      -1.76536537      -9.33950039
H       -0.11252952      -0.07998981      -2.73425161
H       -1.52519226      -1.48487517      -4.14946669
H       -3.26726788      -3.27517888      -0.63578519
H       -1.84854134      -1.85867816       0.78358022
H       -3.74112277      -4.13362935      -2.84399383
H       -6.04829825      -6.01559318      -6.04517800
H       -7.27040739      -5.91309735      -8.18095403
H       -5.82410894      -1.92467149      -8.80060721
H       -4.63926048       0.46752890      -5.33105534
H       -4.18349851       2.71197481      -6.23027557
H       -3.24929920       2.97485178      -8.51641627
H       -2.71964817       0.97460170      -9.86604573
C       -7.34695564      -3.82331096      -9.86657775
C       -7.95579556      -3.75543138     -10.90539551
Br      -8.94023820      -3.64567583     -12.58507595
C       -0.88131232       0.88131232       0.88131232
C       -0.31938758       1.94348624       1.58059575
C       -1.12868952       2.74515687       2.39250973
C       -2.50626510       2.51574680       2.49919635
C       -3.04728106       1.43139493       1.79095657
C       -2.24337700       0.61676510       0.98610963
N       -3.34367098       3.26476225       3.33150541
C       -3.08837487       4.05548191       4.44793533
N       -4.14377343       4.70152003       4.95456187
C       -3.98417068       5.38121926       6.09402981
C       -5.08673029       6.05251865       6.61067240
C       -5.02909947       6.75367815       7.81782223
C       -3.84576761       6.76595807       8.53881649
C       -2.72611341       6.10104947       8.04672714
C       -2.77402597       5.42861351       6.79539920
C       -1.71196522       4.76522169       6.16219727
N       -1.87869154       4.08245997       5.00748181
C       -0.33387374       4.65336054       6.68565172
C        0.20588847       3.36018716       6.86842581
C        1.50813322       3.16286551       7.33366912
C        2.30649491       4.25879902       7.63742245
C        1.81070820       5.54733816       7.44666426
C        0.51233848       5.74593575       6.95405997
Cl       0.04701995       7.38419735       6.63665249
H        0.74227831       2.16106318       1.50798607
H       -0.66344920       3.57162787       2.92445706
H       -4.10575705       1.19803120       1.87444369
H       -2.68898635      -0.22002272       0.45467565
H       -4.33412321       3.24162823       3.14299451
H       -6.02351588       6.02856027       6.05699328
H       -5.91296860       7.27072815       8.18076202
H       -1.81026316       6.10913680       8.62998768
H       -0.39668987       2.48621429       6.61988276
H        1.89696316       2.15304303       7.44571940
H        3.32070252       4.11092434       8.00064187
H        2.45133383       6.39866164       7.66376440
C       -3.77370282       7.47054543       9.79259610
C       -3.71334856       8.06063735      10.84263653
Br      -3.61576083       9.01476607      12.54046309
C        0.88131232      -0.88131232       0.88131232
C        1.01527617      -2.23486020       0.59333319
C        1.81846580      -3.04102749       1.40686282
C        2.51513231      -2.50753317       2.49854277
C        2.35540866      -1.14046808       2.77375581
C        1.54444988      -0.32898839       1.97281346
N        3.29351060      -3.28434533       3.36208271
C        3.30016646      -4.64705875       3.64456691
N        4.25702592      -5.06104024       4.48178916
C        4.24155017      -6.33601431       4.88185527
C        5.24289148      -6.75749291       5.74953695
C        5.28549152      -8.05887836       6.25622996
C        4.28957592      -8.95607869       5.90488756
C        3.27340950      -8.56128706       5.03919346
C        3.25897284      -7.25133928       4.48772657
C        2.32802653      -6.74140926       3.56994840
N        2.35107559      -5.45161051       3.16594721
C        1.18679193      -7.48755315       2.99854092
C       -0.11110544      -6.95753945       3.17629049
C       -1.24268232      -7.58324224       2.64784150
C       -1.10656605      -8.76557833       1.93071428
C        0.16240140      -9.30175357       1.71913925
C        1.30146071      -8.65936792       2.22682861
Cl       2.83317140      -9.34456702       1.79609146
H        0.50318468      -2.67895249      -0.25536622
H        1.90865872      -4.09518516       1.15569025
H        2.85097300      -0.69471375       3.63254521
H        1.43431856       0.72494498       2.21426569
H        3.98011709      -2.81016303       3.92846583
H        6.01583638      -6.04977314       6.04345991
H        6.09077838      -8.34793622       6.92574416
H        2.49323550      -9.27210846       4.78404369
H       -0.23957274      -6.02167779       3.72068187
H       -2.22488382      -7.13741310       2.78926999
H       -1.98416204      -9.25723803       1.51778770
H        0.26120113     -10.21405081       1.13584027
C        4.30968432     -10.29651821       6.43064184
C        4.32652510     -11.41913630       6.87096104
Br       4.35375521     -13.23431481       7.58291995
