181
Properties=species:S:1:pos:R:3 pbc="F F F"
C        0.00000000       0.00000000       0.00000000
C        0.88258376       0.88258376      -0.88258376
C        1.39459098       2.07582610      -0.37893002
C        2.19307090       2.88539646      -1.19136198
C        2.48335644       2.52074758      -2.51666349
C        1.98386945       1.29426847      -2.98783390
C        1.17868374       0.48340618      -2.18180614
C        3.35288144       3.44592261      -3.37764883
H        3.18780511       4.47652536      -3.03818853
C        3.10683113       3.37291013      -4.88362085
C        4.19728193       2.44148180      -5.31506730
N        5.21330280       2.38230368      -4.43217067
N        4.76871087       3.11572870      -3.26187020
C        5.63146624       3.61433499      -2.30523954
O        5.24127806       4.36921522      -1.40680423
C        7.09007411       3.17323256      -2.44050917
C        8.03508803       3.70148015      -1.37358225
C        9.14526635       4.48305440      -1.72512265
C       10.03328895       4.93578677      -0.74628230
C        9.82140760       4.61260513       0.59320073
C        8.72090197       3.83778731       0.95409358
C        7.83600013       3.38114100      -0.02379393
C        4.19443640       1.67559859      -6.55962070
C        3.51196472       2.13445674      -7.69266876
C        3.51426964       1.39122309      -8.87806466
C        4.18963511       0.17464053      -8.93171950
Br       4.19926951      -0.82959790     -10.53312490
C        4.86206369      -0.30729465      -7.81142678
C        4.86497138       0.44565053      -6.63537748
H        1.19129258       2.38332677       0.64248259
H        2.61637910       3.80431916      -0.78760468
H        2.24018542       0.95100299      -3.98785146
H        0.80584264      -0.45586610      -2.57969626
H        3.27892531       4.35570431      -5.34182062
H        2.09896918       3.04373498      -5.15368117
H        7.45195436       3.49229654      -3.42474379
H        7.13175951       2.07729080      -2.40798906
H        9.31984536       4.74295242      -2.76675553
H       10.88759498       5.54321203      -1.03171037
H       10.50838257       4.96802903       1.35458475
H        8.54210093       3.59175336       1.99649164
H        6.97119095       2.78639741       0.26542669
H        2.99411261       3.08828209      -7.66304248
H        2.99306097       1.77742528      -9.74889896
H        5.38811075      -1.25593617      -7.83272612
H        5.38670299       0.07110968      -5.75689770
C       -0.88258376      -0.88258376      -0.88258376
C       -1.07278285      -0.55401346      -2.22255079
C       -1.88808234      -1.35729455      -3.02445246
C       -2.53012757      -2.49121712      -2.49942283
C       -2.29214203      -2.82011463      -1.15371516
C       -1.48290508      -2.01629100      -0.34469999
C       -3.42721706      -3.33720568      -3.41203015
H       -3.86096449      -2.67194837      -4.16960614
C       -4.55375059      -4.09640754      -2.71320398
C       -3.94142074      -5.45427154      -2.55813874
N       -2.93154898      -5.67358530      -3.42264288
N       -2.67616464      -4.40034424      -4.06980090
C       -2.00171568      -4.28004741      -5.26927768
O       -1.93809937      -3.20393689      -5.87526124
C       -1.35094595      -5.56294839      -5.78992151
C       -0.58752956      -5.42551278      -7.09710808
C       -0.94955256      -6.18409575      -8.21979508
C       -0.22288294      -6.08374743      -9.40872765
C        0.87235291      -5.22486365      -9.48830126
C        1.24023699      -4.46537956      -8.37945313
C        0.51765952      -4.56869931      -7.18989526
C       -4.37845478      -6.45950337      -1.59169754
C       -5.70163224      -6.50135476      -1.13610323
C       -6.10789774      -7.46697123      -0.20868843
C       -5.18624965      -8.38949981       0.27975432
Br      -5.73283799      -9.69876919       1.52881067
C       -3.86162164      -8.35572888      -0.14884531
C       -3.46628777      -7.39634752      -1.08336410
H       -0.58726618       0.31385503      -2.65872561
H       -2.01348848      -1.11561431      -4.07920015
H       -2.72300253      -3.72516921      -0.73086813
H       -1.32426620      -2.29764191       0.69223531
H       -5.42442090      -4.17453887      -3.37749047
H       -4.88204033      -3.63951905      -1.77482595
H       -2.13716447      -6.31631685      -5.91551337
H       -0.64914221      -5.93493216      -5.03296500
H       -1.80321496      -6.85626545      -8.17007291
H       -0.51588585      -6.67455897     -10.27207256
H        1.43436267      -5.14300426     -10.41318526
H        2.08465376      -3.78511745      -8.43689895
H        0.80225209      -3.96380511      -6.33060863
H       -6.42938140      -5.79404467      -1.52201111
H       -7.14409838      -7.49047893       0.11519210
H       -3.12828734      -9.06220925       0.22559589
H       -2.43145362      -7.36473538      -1.41852136
C       -0.88258376       0.88258376       0.88258376
C       -1.40840391       0.37347025       2.06747294
C       -2.22294431       1.17955406       2.86733097
C       -2.53037127       2.49808017       2.49231608
C       -1.95733282       2.99832291       1.31031610
C       -1.14719861       2.19425112       0.50244634
C       -3.43968510       3.34333837       3.39342941
H       -4.13422401       2.66410211       3.90419288
C       -4.24118730       4.43524937       2.68692544
C       -3.38256862       5.63709509       2.93416732
N       -2.55779767       5.48179934       3.98818015
N       -2.67241428       4.09046321       4.38343228
C       -2.30075265       3.62175458       5.62853353
O       -2.55654364       2.46798622       5.99276765
C       -1.56230695       4.62544296       6.51606593
C       -1.13107202       4.10249926       7.87657914
C       -1.58605779       4.71301445       9.05437115
C       -1.15846760       4.25419000      10.30270041
C       -0.27243453       3.18117566      10.38720181
C        0.18507817       2.56613011       9.22354376
C       -0.23792644       3.02704776       7.97596085
C       -3.42127256       6.86522544       2.14315770
C       -4.58882749       7.26702242       1.48324031
C       -4.61318521       8.44370163       0.72667057
C       -3.46210737       9.21928587       0.61460190
Br      -3.49282988      10.81235587      -0.40238925
C       -2.28599345       8.82965760       1.25054477
C       -2.27257087       7.66006309       2.01336543
H       -1.18608496      -0.64042420       2.38647600
H       -2.61051542       0.78992238       3.80786513
H       -2.12346322       4.03398768       1.02158898
H       -0.72455594       2.61182606      -0.40670920
H       -5.20614663       4.58005717       3.19024644
H       -4.43645352       4.22975505       1.63017677
H       -2.21342684       5.49535123       6.66021663
H       -0.66138725       4.96550180       5.99015031
H       -2.27880688       5.54983275       9.00091367
H       -1.52109152       4.73396289      11.20746298
H        0.05638212       2.82129869      11.35691029
H        0.86588088       1.72215582       9.28108770
H        0.11329023       2.53482191       7.07062998
H       -5.49409871       6.67488507       1.57645340
H       -5.53614639       8.74370589       0.23953293
H       -1.37794241       9.41780597       1.16915232
H       -1.35474134       7.35059167       2.50937735
C        0.88258376      -0.88258376       0.88258376
C        1.37428410      -2.08779639       0.38726661
C        2.17280001      -2.89719939       1.19982994
C        2.48331268      -2.52034650       2.51710834
C        2.00413509      -1.28243835       2.97939838
C        1.19900670      -0.47158688       2.17330249
C        3.35207378      -3.44561504       3.37876406
H        3.17069406      -4.47811889       3.05370605
C        3.12503460      -3.35176110       4.88656641
C        4.23158430      -2.42845166       5.29379507
N        5.23754678      -2.39198926       4.39824111
N        4.77023195      -3.13386850       3.24220933
C        5.61543687      -3.65414394       2.28145995
O        5.20553212      -4.41489931       1.39686607
C        7.08070385      -3.22903627       2.39407573
C        8.00647713      -3.78124838       1.32242491
C        9.11143759      -4.57188338       1.67012243
C        9.98218414      -5.04685917       0.68631471
C        9.75806643      -4.73709110      -0.65434552
C        8.66258455      -3.95343899      -1.01142783
C        7.79499337      -3.47459866      -0.02865697
C        4.25280411      -1.64785645       6.52899513
C        3.57860227      -2.08498034       7.67550762
C        3.60399135      -1.32779626       8.85176979
C        4.29436037      -0.11887092       8.88276385
Br       4.33518129       0.90413534      10.47175056
C        4.95894811       0.34159900       7.74884672
C        4.93876790      -0.42524683       6.58198466
H        1.15507925      -2.40494453      -0.62788702
H        2.58027455      -3.82587809       0.80215030
H        2.27651761      -0.93042222       3.97210004
H        0.84216329       0.47676195       2.56427145
H        3.29093667      -4.33104006       5.35447351
H        2.12447510      -3.00730527       5.16460497
H        7.45057629      -3.54071183       3.37770658
H        7.13501374      -2.13413874       2.34788689
H        9.29542872      -4.82146726       2.71265733
H       10.83258305      -5.66107886       0.96885547
H       10.43156503      -5.10977112      -1.41950930
H        8.47419807      -3.71767552      -2.05451094
H        6.93389652      -2.87297759      -0.31471245
H        3.04913499      -3.03279451       7.66350768
H        3.08873977      -1.69732916       9.73331628
H        5.49644745       1.28403263       7.75248588
H        5.45431185      -0.06747073       5.69292777
