190
Properties=species:S:1:pos:R:3 pbc="F F F"
C       -0.15442991       6.03360489      -8.27716231
C        0.82302584       5.18192044      -7.48598595
C        1.19852492       5.77711914      -6.12488930
H        1.61422390       6.77933878      -6.27751013
C        0.01988389       5.85026717      -5.16128973
O        2.17786836       4.88786799      -5.55170200
C        3.24195505       5.45267998      -4.91112924
O        3.45567406       6.66017513      -4.83254392
C        4.20777787       4.37910561      -4.32659020
O        5.16506545       5.06550483      -3.48776780
C        3.40300493       3.42466297      -3.42412353
C        2.85878965       2.22198671      -3.91467352
C        2.06517236       1.40745592      -3.10069691
C        1.79158897       1.79158897      -1.79158897
C        2.30695959       2.97992630      -1.28445545
C        3.10514291       3.79021217      -2.09645145
C        5.07863720       3.68639087      -5.39059979
C        4.98502908       3.97855760      -6.76412283
C        5.80596724       3.33468014      -7.69652722
C        6.73813926       2.39391268      -7.27005400
C        6.86326847       2.09304695      -5.91846846
C        6.04381337       2.73950577      -4.98697125
H       -0.30308378       5.60547525      -9.27379012
H        0.22375212       7.05354614      -8.40028152
H       -1.13104517       6.08180165      -7.78770442
H        1.73943114       5.05114225      -8.07662335
H        0.41374336       4.17228784      -7.35499608
H       -0.43923716       4.86417936      -5.02822979
H       -0.74591170       6.54940382      -5.50925275
H        0.35450075       6.17527421      -4.16977445
H        5.25966990       5.95808447      -3.87240098
H        3.03645079       1.90906772      -4.94216178
H        1.65936710       0.48225367      -3.50363239
H        2.09261217       3.28958710      -0.26556388
H        3.49242819       4.72156801      -1.68367197
H        4.28153144       4.71361768      -7.14652178
H        5.71252135       3.58066370      -8.75162371
H        7.59414542       1.36676319      -5.57486824
H        6.16462534       2.50524660      -3.92971864
C        7.58126935       1.73438800      -8.23325640
C        8.28739079       1.18203608      -9.03993841
Br       9.42912944       0.28892975     -10.34427500
C       -9.17517623      -0.44732200      -4.53383905
C       -8.09693540      -1.38138204      -4.01261480
C       -6.82853907      -1.39991903      -4.87207526
H       -7.09800758      -1.67526328      -5.89780195
C       -6.09112718      -0.06601939      -4.87429422
O       -5.95450043      -2.38217635      -4.28076157
C       -5.27207196      -3.20736051      -5.12633180
O       -5.38688484      -3.21178183      -6.34972645
C       -4.35487773      -4.20313714      -4.35545881
O       -3.51937086      -4.86891140      -5.33005582
C       -3.42751725      -3.40355165      -3.42072253
C       -3.76479977      -3.15430760      -2.07634251
C       -2.94754512      -2.36016857      -1.26561150
C       -1.79158897      -1.79158897      -1.79158897
C       -1.44005215      -2.01200458      -3.11928461
C       -2.25388448      -2.81086720      -3.92705485
C       -5.12256940      -5.35372984      -3.67932862
C       -6.52395262      -5.47258647      -3.73117042
C       -7.18083072      -6.54267771      -3.11366617
C       -6.44690710      -7.51446961      -2.44072924
C       -5.06027383      -7.43162559      -2.38288445
C       -4.40452420      -6.36273913      -3.00302707
H      -10.08565948      -0.55507259      -3.93544952
H       -9.42516830      -0.67802421      -5.57438727
H       -8.86159988       0.59858904      -4.47545006
H       -8.50271314      -2.40056188      -3.96392172
H       -7.84607352      -1.11743821      -2.97751555
H       -5.85040465       0.25033076      -3.85309810
H       -6.67803862       0.72127237      -5.35597862
H       -5.13743999      -0.15570892      -5.40640050
H       -4.04362262      -4.89296453      -6.15356820
H       -4.67574113      -3.56639292      -1.64554624
H       -3.22980618      -2.18564672      -0.22980026
H       -0.54256652      -1.56643443      -3.53876220
H       -1.96610517      -2.96463338      -4.96692961
H       -7.14123127      -4.74652840      -4.25391123
H       -8.26469215      -6.60972302      -3.17039359
H       -4.47799593      -8.19008613      -1.86769479
H       -3.31648195      -6.32001332      -2.96309531
C       -7.12729476      -8.61425304      -1.80736595
C       -7.69711942      -9.53532166      -1.27692421
Br      -8.61847770     -11.02461173      -0.41924476
C       -9.74316266       1.83754890       2.57562572
C       -8.40432390       2.55340984       2.53319849
C       -7.41690033       2.07906368       3.60456935
H       -7.87627944       2.20326515       4.59152821
C       -6.98533473       0.62939874       3.41670733
O       -6.24407298       2.90613081       3.46723456
C       -5.64703929       3.34632319       4.61240179
O       -6.06397243       3.13552184       5.74889885
C       -4.38528808       4.21109776       4.31708784
O       -3.70771780       4.43595347       5.57466681
C       -3.43058020       3.40618239       3.41502884
C       -3.45993823       3.52355170       2.01195995
C       -2.63972166       2.72688123       1.20672231
C       -1.79158897       1.79158897       1.79158897
C       -1.75026934       1.64665161       3.17442039
C       -2.56555556       2.44752004       3.97873092
C       -4.71180497       5.62926972       3.81455317
C       -6.02799218       6.08554578       3.61417155
C       -6.28046199       7.38780945       3.16890317
C       -5.22175557       8.25664996       2.92370042
C       -3.91083402       7.83939380       3.12455605
C       -3.65985897       6.53802972       3.57240171
H      -10.43250060       2.28895895       1.85472204
H      -10.19675043       1.91160732       3.56922203
H       -9.64012274       0.77972174       2.31861642
H       -8.57293281       3.63058168       2.66368225
H       -7.95791920       2.44657259       1.53653550
H       -6.56249462       0.47273354       2.41794383
H       -7.81973318      -0.06376323       3.55677493
H       -6.19896678       0.36722332       4.13335931
H       -4.40734411       4.42694478       6.25586647
H       -4.13135812       4.22978856       1.52653361
H       -2.68004955       2.83955166       0.12565194
H       -1.09540741       0.91436944       3.63798629
H       -2.52516942       2.31299395       5.05950480
H       -6.88930257       5.44984273       3.80252559
H       -7.30759557       7.71382980       3.02338340
H       -3.07810694       8.51311224       2.94455767
H       -2.62816048       6.23062832       3.74080178
C       -5.48655465       9.59612851       2.46623059
C       -5.70832388      10.71794180       2.08309961
Br      -6.06690596      12.53181901       1.46360921
C       -0.24441681      -6.42932142       7.97143268
C        0.72610837      -5.49582885       7.26899502
C        1.19274266      -6.00615321       5.90163749
H        1.64912881      -6.99426690       6.02767710
C        0.06496087      -6.08692537       4.87955455
O        2.15322604      -5.04568300       5.41852931
C        3.27203437      -5.52879462       4.80493528
O        3.54758261      -6.71984487       4.68096564
C        4.21059759      -4.38449196       4.31838413
O        5.23794087      -4.98423205       3.49616516
C        3.40307879      -3.42564023       3.42307242
C        2.77892690      -2.27472737       3.94179561
C        1.98523674      -1.45925454       3.12883391
C        1.79158897      -1.79158897       1.79158897
C        2.38703294      -2.92872591       1.25558249
C        3.18516433      -3.73965562       2.06698659
C        4.99653608      -3.70469001       5.45440177
C        4.85369676      -4.06727204       6.80674071
C        5.59829721      -3.43211564       7.80676175
C        6.50241491      -2.42955953       7.47013150
C        6.67526512      -2.05790359       6.14161516
C        5.93222778      -2.69561090       5.14245172
H       -0.45971343      -6.05746991       8.97842512
H        0.17676498      -7.43542154       8.06539326
H       -1.19380905      -6.49887615       7.43339379
H        1.60672612      -5.35158484       7.90888578
H        0.27476185      -4.50107265       7.16519279
H       -0.43487186      -5.11786939       4.77017446
H       -0.68125874      -6.83687257       5.15713103
H        0.46055345      -6.34751929       3.89147668
H        5.35788009      -5.88910329       3.84317198
H        2.89337709      -2.00420713       4.99009607
H        1.51672399      -0.57451973       3.55400944
H        2.23542262      -3.19811278       0.21422776
H        3.63595397      -4.63090990       1.63080430
H        4.16978451      -4.85184841       7.12003797
H        5.46812917      -3.73313932       8.84354027
H        7.38512370      -1.28270037       5.86795279
H        6.09036972      -2.40491246       4.10430841
C        7.26697000      -1.77925944       8.50268431
C        7.90728489      -1.23463311       9.36744729
Br       8.94261990      -0.35401840      10.76569589
C       -0.00445707       0.01189536      -1.78238275
H       -0.66409135       0.67374010      -2.43557963
H        0.65740317      -0.63156657      -2.45157240
C       -0.90989263      -0.90692880      -0.91072765
C        0.90977584       0.90977584      -0.90977584
C       -0.00465871       1.77757030       0.00794375
H       -0.66225468       2.44313916      -0.64384735
H        0.64322798       2.43503045       0.67728295
C       -1.78241447       0.00034974      -0.00472694
H       -2.45427497      -0.65498947       0.64260836
H       -2.43311707       0.67328779      -0.65473579
C       -0.91132561       0.90220522       0.91563759
C       -0.01476271      -0.02253852       1.78660255
H       -0.67934791      -0.69751639       2.42135241
H        0.63392994       0.61504881       2.47327442
C        0.01484550      -1.77751727      -0.01636693
H        0.67870853      -2.42144646      -0.68295456
H       -0.62264859      -2.45592969       0.64226336
C        1.78714474       0.01002794       0.00389507
H        2.44202412       0.67113390       0.66197326
H        2.45385902      -0.65136977      -0.64189061
C        0.91606151      -0.90478549       0.90901405
