169
Properties=species:S:1:pos:R:3 pbc="F F F"
C        0.00000000       0.00000000       0.00000000
C       -1.06433394       5.12370086      -7.36725828
C       -0.08687818       4.27201642      -6.57608193
C        0.28862090       4.86721511      -5.21498528
H        0.70431987       5.86943475      -5.36760610
C       -0.89002013       4.94036315      -4.25138570
O        1.26796433       3.97796396      -4.64179798
C        2.33205103       4.54277595      -4.00122522
O        2.54577004       5.75027111      -3.92263990
C        3.29787384       3.46920159      -3.41668618
O        4.25516142       4.15560081      -2.57786378
C        2.49310090       2.51475895      -2.51421951
C        1.94888563       1.31208268      -3.00476949
C        1.15526834       0.49755189      -2.19079288
C        0.88168495       0.88168495      -0.88168495
C        1.39705557       2.07002227      -0.37455143
C        2.19523888       2.88030815      -1.18654743
C        4.16873317       2.77648685      -4.48069577
C        4.07512506       3.06865357      -5.85421881
C        4.89606322       2.42477612      -6.78662319
C        5.82823524       1.48400865      -6.36014998
C        5.95336444       1.18314293      -5.00856443
C        5.13390935       1.82960174      -4.07706723
H       -1.21298780       4.69557123      -8.36388610
H       -0.68615190       6.14364211      -7.49037750
H       -2.04094919       5.17189763      -6.87780039
H        0.82952712       4.14123823      -7.16671932
H       -0.49616067       3.26238382      -6.44509206
H       -1.34914119       3.95427534      -4.11832577
H       -1.65581573       5.63949980      -4.59934873
H       -0.55540327       5.26537019      -3.25987043
H        4.34976588       5.04818045      -2.96249695
H        2.12654676       0.99916370      -4.03225775
H        0.74946307      -0.42765035      -2.59372836
H        1.18270814       2.37968308       0.64434014
H        2.58252416       3.81166398      -0.77376795
H        3.37162742       3.80371365      -6.23661775
H        4.80261732       2.67075968      -7.84171969
H        6.68424140       0.45685917      -4.66496422
H        5.25472132       1.59534258      -3.01981462
C        6.67136532       0.82448398      -7.32335238
C        7.37748677       0.27213206      -8.13003439
Br       8.51922542      -0.62097428      -9.43437097
C        0.60117036      -3.89655594      -8.13123963
C       -0.34858175      -3.31297599      -7.09966242
C       -0.43330070      -4.13083154      -5.80668905
H       -0.73260654      -5.15564080      -6.05311339
C        0.87657732      -4.15065240      -5.02765364
O       -1.42270926      -3.48222151      -4.98279550
C       -2.29484965      -4.27999264      -4.30120991
O       -2.33451169      -5.50569799      -4.37847137
C       -3.29339939      -3.45021531      -3.44014690
O       -4.01507652      -4.37693281      -2.59661667
C       -2.49345564      -2.51156130      -2.51706243
C       -2.19148791      -1.18683661      -2.88741328
C       -1.39753310      -0.37538920      -2.07069082
C       -0.88168495      -0.88168495      -0.88168495
C       -1.15476143      -2.19017529      -0.49669255
C       -1.95344652      -2.99841127      -1.31023667
C       -4.39786140      -2.76373028      -4.26432410
C       -4.47519814      -2.85628320      -5.66651610
C       -5.50449901      -2.22732788      -6.37563564
C       -6.47656157      -1.50193614      -5.69389617
C       -6.43455902      -1.40274733      -4.30776545
C       -5.40651070      -2.03433719      -3.59973043
H        0.54045673      -3.32429471      -9.06263154
H        0.34539506      -4.93692634      -8.35633643
H        1.63828039      -3.86041380      -7.78661541
H       -1.35276078      -3.24588357      -7.53884031
H       -0.05979663      -2.27904279      -6.87247579
H        1.21758853      -3.13253991      -4.80850854
H        1.66586484      -4.67465147      -5.57424617
H        0.74081677      -4.64926089      -4.06139322
H       -4.04910123      -5.21551845      -3.09582360
H       -2.56153701      -0.77267143      -3.82375978
H       -1.18168403       0.64510640      -2.37896345
H       -0.75048809      -2.59448784       0.42692485
H       -2.14885842      -4.02342911      -0.99566856
H       -3.74745299      -3.42038012      -6.24412571
H       -5.53998325      -2.31629027      -7.45882317
H       -7.19383924      -0.84630811      -3.76591743
H       -5.39598298      -1.96127457      -2.51262096
C       -7.53430095      -0.85697024      -6.42793049
C       -8.42015767      -0.31681129      -7.04268424
Br      -9.85251308       0.55658003      -8.03668906
C       -7.97997994       4.17707998      -0.73043471
C       -6.61478614       4.21222057      -0.06578654
C       -6.38079168       3.06610905       0.92392055
H       -7.16819963       3.08761790       1.68554320
C       -6.35041044       1.69748666       0.25383161
O       -5.08316895       3.29607036       1.50848697
C       -4.94930305       3.07804843       2.84870072
O       -5.86296731       2.75257317       3.60314057
C       -3.49588635       3.34684172       3.34103353
O       -3.40498511       2.87774435       4.70589655
C       -2.52092010       2.50440692       2.49675235
C       -1.89738077       3.02293667       1.34542036
C       -1.07691585       2.21842996       0.54826731
C       -0.88168495       0.88168495       0.88168495
C       -1.49415100       0.34030320       2.00717507
C       -2.30879919       1.14649158       2.80680368
C       -3.14354716       4.84230708       3.44006155
C       -4.04412035       5.86515502       3.08872207
C       -3.68735942       7.21296627       3.20713683
C       -2.42754303       7.55966767       3.68518317
C       -1.52037487       6.57220180       4.05249513
C       -1.87927685       5.22506564       3.93623583
H       -8.12040020       5.07174340      -1.34567408
H       -8.77986727       4.15145214       0.01654830
H       -8.08562221       3.30588009      -1.38275347
H       -6.50393800       5.16519851       0.46834816
H       -5.82914921       4.21398126      -0.83181526
H       -5.59832123       1.66776466      -0.54262597
H       -7.32244359       1.43246969      -0.17188048
H       -6.07081181       0.92262209       0.97640344
H       -4.30147782       2.97952948       5.07943598
H       -2.05199945       4.05855264       1.04741612
H       -0.60511734       2.64464307      -0.33421934
H       -1.35158281      -0.70390688       2.27037515
H       -2.78673892       0.70173579       3.67948139
H       -5.04359388       5.64686919       2.72149576
H       -4.40359942       7.98246428       2.92903299
H       -0.53789660       6.83294911       4.43521908
H       -1.16378896       4.46279900       4.24329056
C       -2.06516927       8.94808444       3.80594797
C       -1.76168125      10.11088348       3.90708849
Br      -1.27096678      11.99103119       4.07062415
C        8.01008644      -4.12319779      -0.70665903
C        6.64106565      -4.17087522      -0.05072070
C        6.39387026      -3.03238877       0.94456226
H        7.17668656      -3.05376696       1.71090721
C        6.35913181      -1.65984967       0.28274724
O        5.09412001      -3.27396621       1.51964006
C        4.95064529      -3.06509069       2.86031621
O        5.85760513      -2.73867520       3.62240071
C        3.49591646      -3.34588692       3.34195823
O        3.39369547      -2.88583360       4.70909693
C        2.52096665      -2.50425764       2.49685507
C        1.90776470      -3.01947002       1.33850309
C        1.08725506      -2.21510730       0.54125076
C        0.88168495      -0.88168495       0.88168495
C        1.48383161      -0.34352942       2.01426824
C        2.29851991      -1.14962497       2.81394958
C        3.15225613      -4.84408129       3.42957836
C        4.06130504      -5.85915939       3.07753300
C        3.71218779      -7.20985281       3.18542192
C        2.45162317      -7.56727213       3.65349858
C        1.53610053      -6.58771447       4.02125679
C        1.88734966      -5.23769629       3.91553237
H        8.15984320      -5.01314528      -1.32651896
H        8.80517952      -4.09727337       0.04541482
H        8.11434210      -3.24733388      -1.35292715
H        6.53284011      -5.12781308       0.47683148
H        5.86019179      -4.17272743      -0.82160401
H        5.61179669      -1.62982484      -0.51816161
H        7.33210824      -1.38621028      -0.13528572
H        6.07028342      -0.89122014       1.00833378
H        4.28848259      -2.98440542       5.08755526
H        2.07063805      -4.05224485       1.03508532
H        0.62355825      -2.63873872      -0.34675588
H        1.33316953       0.69812935       2.28301089
H        2.76830316      -0.70735287       3.69230006
H        5.06165014      -5.63244297       2.71786571
H        4.43488767      -7.97318122       2.90702779
H        0.55291789      -6.85688211       4.39626479
H        1.16526824      -4.48177391       4.22283637
C        2.09713068      -8.95861869       3.76345232
C        1.80024321     -10.12387143       3.85553857
Br       1.32020129     -12.00798656       4.00443426
