174
Properties=species:S:1:pos:R:3 pbc="F F F"
O        5.98463213       7.60274872       1.48218878
C        5.37584468       6.53589897       1.35164300
N        5.10414322       6.06202025       0.09489139
N        4.38881698       4.85839262      -0.17133066
C        4.11023176       4.78158086      -1.48431447
H        4.39815058       5.52617968      -2.22295089
C        3.32790378       3.65475723      -2.02298848
C        3.38244947       3.40028285      -3.40217866
C        2.66370746       2.34407917      -3.96915954
C        1.86924031       1.53403219      -3.16136889
C        1.79295522       1.79295522      -1.79295522
C        2.51189812       2.84548173      -1.22400907
C        4.93018726       5.73118501       2.54177477
C        6.06201130       5.00998438       3.21715869
O        6.45185880       5.31579604       4.34545539
N        6.53392019       3.93206585       2.47992209
N        7.49563936       3.11656991       3.01063876
C        7.91143184       2.16839128       2.23625106
C        8.96764369       1.22628160       2.67047482
C        9.45500971       1.23957688       3.98339678
C       10.47111782       0.35619695       4.36120873
C       11.00209159      -0.53479032       3.42954563
C       10.50972193      -0.54352745       2.12412094
Br      11.24406916      -1.74437280       0.85900249
C        9.49097321       0.32791314       1.73718003
H        5.35530723       6.66257738      -0.68060623
H        4.00052020       4.02627771      -4.04089394
H        2.72975137       2.15801502      -5.03696085
H        1.31569411       0.71168102      -3.60271262
H        2.44044801       3.05055658      -0.15941186
H        4.14391646       5.01055381       2.29912198
H        4.47901558       6.42674283       3.25983435
H        6.18860668       3.80467044       1.52347288
H        7.50459647       2.03029521       1.21803927
H        9.04883015       1.93999601       4.71223419
H       10.84925066       0.37167109       5.38122027
H       11.79815191      -1.21161101       3.72810295
H        9.11917878       0.31862022       0.71668826
O       -6.64584341      -7.01599063       1.55664197
C       -5.94854098      -6.00890277       1.39734311
N       -5.55147485      -5.65441223       0.13461500
N       -4.72790627      -4.52945598      -0.16117801
C       -4.35067986      -4.57465955      -1.45078768
H       -4.64157744      -5.35158039      -2.15412333
C       -3.44686792      -3.55196817      -2.00681340
C       -3.38241299      -3.40170972      -3.40078827
C       -2.54526381      -2.44686941      -3.98481296
C       -1.75054766      -1.63587858      -3.17821514
C       -1.79295522      -1.79295522      -1.79295522
C       -2.63016073      -2.74397243      -1.20725576
C       -5.52854577      -5.14859309       2.55754137
C       -6.64673089      -4.29791572       3.08980962
O       -7.13905825      -4.48673543       4.20359423
N       -6.97968020      -3.24918246       2.24279871
N       -7.91102966      -2.32814078       2.63759993
C       -8.19554724      -1.41532560       1.76730079
C       -9.20413843      -0.36905993       2.04974787
C       -9.78406070      -0.24571184       3.31858272
C      -10.75326656       0.73490856       3.55225196
C      -11.14545688       1.58695159       2.52074965
C      -10.56144978       1.45929169       1.26008455
Br     -11.10796591       2.60826154      -0.14098950
C       -9.58803896       0.48964808       1.01668457
H       -5.79203204      -6.29358641      -0.61287238
H       -3.99961483      -4.02925763      -4.03881940
H       -2.51988931      -2.33972101      -5.06511693
H       -1.10478418      -0.89200507      -3.63329850
H       -2.65140011      -2.87066135      -0.12835500
H       -4.67349107      -4.50720478       2.32534756
H       -5.18525732      -5.81709640       3.35642965
H       -6.55777873      -3.22128941       1.30926390
H       -7.70720591      -1.38598676       0.77634026
H       -9.48666290      -0.91498559       4.12505650
H      -11.20370742       0.82558555       4.53842039
H      -11.90613645       2.34023800       2.70746050
H       -9.14434489       0.39324224       0.02999191
O        1.04064083       4.53268376       8.61314913
C        1.00266779       4.10948851       7.45327992
N       -0.18486618       4.11687727       6.76952864
N       -0.34784177       3.63111806       5.43958043
C       -1.65637539       3.58524826       5.13450345
H       -2.45928442       3.88296223       5.80503449
C       -2.10738235       3.06797005       3.83029707
C       -3.40463829       3.38318112       3.39709157
C       -3.88593808       2.92271459       2.16829350
C       -3.07590632       2.12824999       1.36048507
C       -1.79295522       1.79295522       1.79295522
C       -1.30910518       2.25381194       3.01847180
C        2.23413013       3.59214433       6.76158330
C        3.17081668       4.68777025       6.33788342
O        4.27708385       4.84041156       6.85887175
N        2.69404331       5.42084200       5.25926526
N        3.48105376       6.38734627       4.69527799
C        2.93884516       7.05349948       3.72891774
C        3.66567596       8.14587467       3.04325177
C        5.01388649       8.40452994       3.32054637
C        5.67037154       9.45875268       2.67772489
C        4.98139210      10.25513507       1.76401267
C        3.63905168       9.98972438       1.49140084
Br       2.70386626      11.08288992       0.26167021
C        2.97524052       8.93609731       2.12084952
H       -1.00530250       4.40497739       7.28821094
H       -4.04416629       4.00352519       4.02000037
H       -4.88875685       3.18847143       1.84749897
H       -3.44969086       1.77563507       0.40476181
H       -0.31329228       1.98063229       3.35649189
H        2.00498347       2.96542071       5.89491105
H        2.75780616       2.93616126       7.46756896
H        1.73255967       5.25844240       4.94392150
H        1.91017149       6.84266238       3.38436152
H        5.55360703       7.79002715       4.04017185
H        6.71688435       9.65848905       2.89809677
H        5.49571061      11.07849311       1.27565544
H        1.92813506       8.74176056       1.90748524
O       -0.40331246      -3.30293987       9.20556466
C       -0.47162268      -3.02862098       8.00310234
N        0.60415872      -3.27599020       7.19112317
N        0.64340250      -2.97697336       5.79816439
C        1.89533900      -3.14346268       5.33732542
H        2.74014064      -3.46494520       5.94219531
C        2.22515153      -2.84904627       3.93145168
C        3.40615938      -3.38441787       3.39433373
C        3.76918737      -3.14105850       2.06670031
C        2.95761568      -2.34608064       1.26094506
C        1.79295522      -1.79295522       1.79295522
C        1.42693163      -2.03674377       3.11771352
C       -1.71498039      -2.43603643       7.39854146
C       -2.82281675      -3.43835384       7.23929990
O       -3.85937910      -3.37856276       7.90301580
N       -2.58503003      -4.35096840       6.22012558
N       -3.54917885      -5.26289514       5.88785422
C       -3.22404448      -6.10519368       4.96242286
C       -4.16017486      -7.16340834       4.52021700
C       -5.48000450      -7.20423384       4.98696048
C       -6.33666742      -8.22929102       4.57348244
C       -5.87543940      -9.21319978       3.69999526
C       -4.55995922      -9.16438697       3.23764579
Br      -3.93394377     -10.51065539       2.06398225
C       -3.69795304      -8.14247812       3.63718122
H        1.44696373      -3.60829700       7.64323010
H        4.04572258      -4.00703341       4.01493586
H        4.68142470      -3.57498700       1.66831555
H        3.23876870      -2.16216172       0.22915733
H        0.52477540      -1.59441802       3.53122302
H       -1.53181731      -1.95249854       6.43466706
H       -2.05802185      -1.63697787       8.06696805
H       -1.66217117      -4.35744570       5.77452970
H       -2.23327800      -6.07647957       4.47365084
H       -5.84189996      -6.44222377       5.67626818
H       -7.36033944      -8.25935380       4.94068712
H       -6.54423558     -10.01194797       3.39072556
H       -2.67339518      -8.11698003       3.27752589
C       -0.00445707       0.01189536      -1.78238275
H       -0.66409135       0.67374010      -2.43557963
H        0.65740317      -0.63156657      -2.45157240
C       -0.90989263      -0.90692880      -0.91072765
C        0.90977584       0.90977584      -0.90977584
C       -0.00465871       1.77757030       0.00794375
H       -0.66225468       2.44313916      -0.64384735
H        0.64322798       2.43503045       0.67728295
C       -1.78241447       0.00034974      -0.00472694
H       -2.45427497      -0.65498947       0.64260836
H       -2.43311707       0.67328779      -0.65473579
C       -0.91132561       0.90220522       0.91563759
C       -0.01476271      -0.02253852       1.78660255
H       -0.67934791      -0.69751639       2.42135241
H        0.63392994       0.61504881       2.47327442
C        0.01484550      -1.77751727      -0.01636693
H        0.67870853      -2.42144646      -0.68295456
H       -0.62264859      -2.45592969       0.64226336
C        1.78714474       0.01002794       0.00389507
H        2.44202412       0.67113390       0.66197326
H        2.45385902      -0.65136977      -0.64189061
C        0.91606151      -0.90478549       0.90901405
