170
Properties=species:S:1:pos:R:3 pbc="F F F"
O        5.42990500       6.76725456      -7.75639043
C        4.50413637       6.25482936      -7.12340158
N        4.77472136       5.60549350      -5.94001242
N        3.83211168       4.93013252      -5.22905975
C        4.28706780       4.23661171      -4.23382774
C        3.40357267       3.40498084      -3.39163975
C        3.97285001       2.67336449      -2.34391381
C        3.16182486       1.86555570      -1.54063872
C        1.79198783       1.79198783      -1.79198783
C        1.22195293       2.51580110      -2.83804263
C        2.02892727       3.32617710      -3.64092981
C        3.06285483       6.29839603      -7.60308065
S        2.73339639       5.03347760      -8.87806632
C        2.85932638       3.55087769      -7.83831711
C        2.38827909       2.30028273      -8.53688134
C        3.32884326       1.54309860      -9.26089544
C        2.96413733       0.35079693      -9.88711173
C        1.65036194      -0.10043823      -9.81070999
C        0.69880211       0.64642416      -9.11758309
C        1.06121386       1.84193710      -8.48669291
H        5.75261713       5.57242515      -5.66870168
H        5.36384726       4.22289023      -3.98335711
H        5.03976850       2.71895241      -2.14343486
H        3.60756313       1.29896904      -0.72668462
H        0.15454355       2.45685398      -3.03722799
H        1.57730942       3.88726901      -4.45526660
H        2.89695418       7.28519135      -8.04932231
H        2.34825967       6.20709157      -6.78076760
H        2.29396893       3.69402946      -6.91515285
H        3.90687368       3.41513568      -7.54818898
H        4.36097847       1.88238419      -9.33572101
H        3.70744033      -0.22386893     -10.43399063
H        1.36486024      -1.03043827     -10.29503862
H       -0.32617835       0.28680954      -9.07309124
C        0.02183483       2.55278723      -7.78813488
C       -0.84864511       3.14812421      -7.20309253
Br      -2.25613755       4.11073376      -6.25712853
O       -7.14445157      -7.49117372      -5.31792469
C       -6.67274990      -6.78794698      -4.42167043
N       -5.78999443      -5.78296368      -4.74726917
N       -5.14850143      -5.02543241      -3.81737010
C       -4.22852627      -4.24288330      -4.28609768
C       -3.40281855      -3.39175640      -3.40561831
C       -2.41925781      -2.58423310      -3.98663741
C       -1.61273964      -1.78026084      -3.17501880
C       -1.79198783      -1.79198783      -1.79198783
C       -2.76777686      -2.59892500      -1.20909481
C       -3.57733189      -3.40141298      -2.01728931
C       -7.01728804      -6.99138437      -2.95565909
S       -6.06363967      -8.36292363      -2.21837702
C       -4.41787929      -7.59723047      -2.23341142
C       -3.39688176      -8.38086442      -1.44769698
C       -2.64789571      -9.36622864      -2.11871295
C       -1.65471539     -10.08966124      -1.45766935
C       -1.39993415      -9.84944771      -0.11125183
C       -2.14603320      -8.89371641       0.57694024
C       -3.14184976      -8.16484724      -0.08314687
H       -5.56245214      -5.69811758      -5.73317424
H       -4.00863200      -4.19299022      -5.36847238
H       -2.26741997      -2.57227894      -5.06245687
H       -0.84985049      -1.15326473      -3.63010157
H       -2.90646689      -2.61154341      -0.13061523
H       -4.33583011      -4.02856150      -1.55545342
H       -8.08128683      -7.24737756      -2.90280345
H       -6.88965713      -6.07827605      -2.36818565
H       -4.47785411      -6.57733594      -1.84796119
H       -4.07666345      -7.52192485      -3.27161004
H       -2.83589516      -9.57163036      -3.17155815
H       -1.08137486     -10.84020673      -1.99598043
H       -0.62467081     -10.40953571       0.40474593
H       -1.94258610      -8.72214468       1.63100834
C       -3.86517184      -7.19362366       0.69603856
C       -4.47095407      -6.38022391       1.34860635
Br      -5.45045272      -5.06502532       2.40375329
O       -5.30307798       7.31120081       7.33927120
C       -4.42700978       6.85267095       6.60268658
N       -4.75431593       5.86838507       5.69752628
N       -3.83500639       5.23922078       4.91707677
C       -4.28465073       4.22534328       4.24751324
C       -3.40643857       3.40169966       3.39205503
C       -3.96435156       2.31408248       2.71169427
C       -3.15257202       1.50815928       1.90728798
C       -1.79198783       1.79198783       1.79198783
C       -1.23161990       2.87197572       2.47220105
C       -2.04035809       3.68105443       3.27462165
C       -2.98299540       7.32275721       6.65857889
S       -2.06827197       6.54333913       8.03332922
C       -2.00628203       4.84395130       7.39828784
C       -1.08243048       3.95307693       8.18993576
C       -1.61323041       3.23873207       9.28087482
C       -0.82011038       2.36112439      10.02081122
C        0.52059049       2.19020850       9.69101569
C        1.07094004       2.90541443       8.62833498
C        0.27814268       3.78526864       7.88271792
H       -5.72183354       5.56064480       5.71126561
H       -5.34601522       3.92076289       4.30331649
H       -5.02190778       2.08073996       2.79950803
H       -3.58975427       0.66417179       1.37929072
H       -0.17029203       3.09250847       2.38582503
H       -1.59609340       4.52120234       3.80254928
H       -2.99830857       8.40509762       6.82806166
H       -2.45788006       7.16555834       5.71268043
H       -1.70539453       4.84913243       6.34862428
H       -3.01572516       4.42006951       7.43440366
H       -2.65935469       3.36266218       9.55706681
H       -1.25121683       1.81212749      10.85421770
H        1.13933598       1.50478107      10.26401550
H        2.12210794       2.76899912       8.38683125
C        0.91961109       4.48346091       6.79890712
C        1.45684089       5.06819693       5.89121559
Br       2.32549603       6.01366563       4.42355514
O        7.25391523      -7.39421850       5.30541626
C        6.79124532      -6.66927767       4.42184432
N        5.84170735      -5.72815376       4.75036617
N        5.20851831      -4.95576312       3.82702252
C        4.22640559      -4.24587271       4.28522896
C        3.40209704      -3.39193275       3.40616348
C        2.34964419      -2.66621441       3.97426972
C        1.54351465      -1.86196725       3.16253738
C        1.79198783      -1.79198783       1.79198783
C        2.83675221      -2.51741123       1.22163323
C        3.64600360      -3.31984628       2.03018430
C        7.21879842      -6.77788456       2.96764852
S        6.37660558      -8.15467779       2.11365695
C        4.69416649      -7.47399482       2.08035987
C        3.75630781      -8.26524821       1.20388714
C        3.02759010      -9.32071169       1.78453551
C        2.10808275     -10.05708826       1.03687498
C        1.90859315      -9.75943610      -0.30739555
C        2.63684753      -8.73276856      -0.90680672
C        3.55874609      -7.99078776      -0.15968999
H        5.56105836      -5.70673722       5.72594839
H        3.95040385      -4.26400769       5.35568306
H        2.14384200      -2.71844440       5.03986937
H        0.72693508      -1.29865653       3.60762518
H        3.02960901      -2.46636058       0.15265594
H        4.45854912      -3.88317324       1.57812267
H        8.29609603      -6.97727919       2.95809262
H        7.07283412      -5.84266528       2.42061944
H        4.71960811      -6.43352265       1.75002048
H        4.29803297      -7.47052115       3.10164422
H        3.17330681      -9.57154279       2.83423408
H        1.54882923     -10.86260025       1.50613254
H        1.19059513     -10.32964036      -0.89077490
H        2.47756377      -8.51638565      -1.96022699
C        4.26801386      -6.94502182      -0.85027874
C        4.86202561      -6.06919284      -1.42864683
Br       5.82249238      -4.65305146      -2.36381910
C       -0.00445707       0.01189536      -1.78238275
H       -0.66409135       0.67374010      -2.43557963
H        0.65740317      -0.63156657      -2.45157240
C       -0.90989263      -0.90692880      -0.91072765
C        0.90977584       0.90977584      -0.90977584
C       -0.00465871       1.77757030       0.00794375
H       -0.66225468       2.44313916      -0.64384735
H        0.64322798       2.43503045       0.67728295
C       -1.78241447       0.00034974      -0.00472694
H       -2.45427497      -0.65498947       0.64260836
H       -2.43311707       0.67328779      -0.65473579
C       -0.91132561       0.90220522       0.91563759
C       -0.01476271      -0.02253852       1.78660255
H       -0.67934791      -0.69751639       2.42135241
H        0.63392994       0.61504881       2.47327442
C        0.01484550      -1.77751727      -0.01636693
H        0.67870853      -2.42144646      -0.68295456
H       -0.62264859      -2.45592969       0.64226336
C        1.78714474       0.01002794       0.00389507
H        2.44202412       0.67113390       0.66197326
H        2.45385902      -0.65136977      -0.64189061
C        0.91606151      -0.90478549       0.90901405
