149
Properties=species:S:1:pos:R:3 pbc="F F F"
C        0.00000000       0.00000000       0.00000000
O        4.52000098       5.85735053      -6.84648640
C        3.59423235       5.34492534      -6.21349755
N        3.86481733       4.69558948      -5.03010840
N        2.92220766       4.02022849      -4.31915572
C        3.37716378       3.32670769      -3.32392371
C        2.49366865       2.49507682      -2.48173573
C        3.06294599       1.76346046      -1.43400979
C        2.25192084       0.95565167      -0.63073469
C        0.88208381       0.88208381      -0.88208381
C        0.31204891       1.60589708      -1.92813861
C        1.11902324       2.41627308      -2.73102579
C        2.15295080       5.38849200      -6.69317662
S        1.82349237       4.12357357      -7.96816230
C        1.94942236       2.64097366      -6.92841308
C        1.47837507       1.39037870      -7.62697732
C        2.41893923       0.63319457      -8.35099142
C        2.05423330      -0.55910709      -8.97720770
C        0.74045792      -1.01034226      -8.90080596
C       -0.21110191      -0.26347986      -8.20767907
C        0.15130983       0.93203308      -7.57678889
H        4.84271310       4.66252113      -4.75879766
H        4.45394324       3.31298620      -3.07345309
H        4.12986448       1.80904838      -1.23353084
H        2.69765910       0.38906502       0.18321940
H       -0.75536047       1.54694996      -2.12732397
H        0.66740539       2.97736499      -3.54536257
H        1.98705016       6.37528733      -7.13941828
H        1.43835564       5.29718754      -5.87086358
H        1.38406490       2.78412543      -6.00524883
H        2.99696965       2.50523165      -6.63828496
H        3.45107445       0.97248017      -8.42581698
H        2.79753630      -1.13377296      -9.52408660
H        0.45495622      -1.94034229      -9.38513460
H       -1.23608237      -0.62309448      -8.16318722
C       -0.88806920       1.64288321      -6.87823086
C       -1.75854914       2.23822019      -6.29318851
Br      -3.16604158       3.20082974      -5.34722450
O       -6.82055262      -5.90136748      -4.50191782
C       -6.37477859      -5.07118593      -3.70669072
N       -5.14220611      -4.50532804      -3.94298106
N       -4.53289804      -3.65744749      -3.07124634
C       -3.30908589      -3.35189166      -3.36681763
C       -2.48829542      -2.48394317      -2.49824260
C       -1.16991022      -2.21171193      -2.87879409
C       -0.36558589      -1.40568399      -2.06703733
C       -0.88208381      -0.88208381      -0.88208381
C       -2.19373960      -1.15509729      -0.49724771
C       -3.00114283      -1.95780826      -1.30737101
C       -7.12890232      -4.64894259      -2.45677452
S       -6.94192030      -5.86539572      -1.10791222
C       -5.18567877      -5.59888536      -0.73424497
C       -4.74261641      -6.28595275       0.53283807
C       -4.24610073      -7.60035193       0.44332744
C       -3.77517812      -8.27020444       1.57304865
C       -3.80255565      -7.64282659       2.81446061
C       -4.31130073      -6.34977323       2.92797666
C       -4.78291886      -5.67401858       1.79680564
H       -4.65716141      -4.83502651      -4.77184397
H       -2.81879783      -3.74520800      -4.27637669
H       -0.75597033      -2.61960327      -3.79687010
H        0.65835761      -1.19550858      -2.36635375
H       -2.59675063      -0.75020050       0.42803768
H       -4.02290015      -2.16684903      -1.00038378
H       -8.19081494      -4.59077065      -2.72017019
H       -6.84042319      -3.65157139      -2.11441218
H       -4.97712775      -4.52913691      -0.66717451
H       -4.58838092      -5.98449702      -1.56760832
H       -4.22078746      -8.10960138      -0.51898277
H       -3.38752281      -9.28170673       1.48137959
H       -3.43332844      -8.16155156       3.69513148
H       -4.33496823      -5.87447295       3.90543082
C       -5.28877137      -4.34064430       1.99637080
C       -5.71242284      -3.22394333       2.16350662
Br      -6.39743145      -1.41833232       2.43375110
O       -4.58851141       5.71220257       6.92312394
C       -3.65662129       5.18056330       6.31547065
N       -3.88945094       4.62226532       5.07879894
N       -2.94559582       3.93193282       4.38406324
C       -3.37679037       3.33010608       3.32089873
C       -2.49281981       2.49578933       2.48187205
C       -3.03682411       1.86649315       1.35709898
C       -2.22610171       1.05820563       0.55399986
C       -0.88208381       0.88208381       0.88208381
C       -0.33768735       1.50365912       2.00473813
C       -1.14419530       2.31426787       2.80785893
C       -2.24900848       5.10281039       6.88280056
S       -2.07857161       3.74497678       8.09167985
C       -2.22663780       2.33873245       6.95343885
C       -1.87738747       1.02078150       7.59756212
C       -2.90623205       0.28319259       8.21370059
C       -2.65477180      -0.96552819       8.78309031
C       -1.36833438      -1.49454731       8.75713455
C       -0.33113550      -0.76980267       8.17176447
C       -0.57981794       0.48225127       7.59806259
H       -4.84818114       4.66826691       4.74758384
H       -4.43419225       3.40045773       3.00573255
H       -4.08403590       1.99228558       1.09612222
H       -2.65208483       0.57132506      -0.31990517
H        0.70929249       1.36460556       2.26360039
H       -0.71271045       2.79527542       3.68214708
H       -2.05295236       6.04831730       7.40048612
H       -1.49001476       5.01557624       6.10081576
H       -1.59574038       2.50067182       6.07702696
H       -3.25972266       2.28804970       6.59271391
H       -3.91875322       0.68275547       8.24786291
H       -3.46479410      -1.52327858       9.24633442
H       -1.17090476      -2.46837237       9.19721613
H        0.67109309      -1.19098287       8.16608632
C        0.54304155       1.16582630       7.01026011
C        1.48343636       1.73832039       6.51797553
Br       3.00397525       2.66399491       5.72199301
O        6.60363063      -6.20760052       4.41260676
C        6.15586340      -5.42804611       3.56874572
N        5.05017238      -4.66665292       3.87368991
N        4.43311144      -3.85587997       2.97260047
C        3.31199991      -3.34390436       3.37189091
C        2.49026185      -2.48278033       2.49743902
C        1.28429377      -1.97938300       2.99673947
C        0.47911891      -1.17431408       2.18487422
C        0.88208381      -0.88208381       0.88208381
C        2.08073430      -1.38582145       0.37952885
C        2.88911254      -2.18827816       1.18893141
C        6.77018201      -5.27743375       2.18700366
S        6.24175043      -6.61342890       1.06004892
C        4.49728255      -6.14718409       0.87434247
C        3.79522885      -6.91657988      -0.21607764
C        3.15643248      -8.12486005       0.12183269
C        2.44882526      -8.85621728      -0.83270863
C        2.37644968      -8.39917553      -2.14470359
C        3.02115356      -7.21659969      -2.50465595
C        3.73038801      -6.47936617      -1.54962238
H        4.65135874      -4.81747104       4.79520211
H        2.91163886      -3.54635694       4.38238672
H        0.95829040      -2.20600399       4.00814931
H       -0.45713388      -0.78410831       2.57653029
H        2.39460239      -1.16147728      -0.63716622
H        3.82226324      -2.57801498       0.78985474
H        7.85771870      -5.33934444       2.30469264
H        6.56250850      -4.29968757       1.74421069
H        4.41650220      -5.07543802       0.68149895
H        3.98192036      -6.33627778       1.82228812
H        3.20565749      -8.50106713       1.14264699
H        1.95503791      -9.78241481      -0.54960278
H        1.82318587      -8.96560582      -2.88904316
H        2.96390733      -6.87537961      -3.53527658
C        4.36497671      -5.26753346      -1.99946530
C        4.89644474      -4.25262356      -2.37620874
Br       5.75578361      -2.61160009      -2.98537103
