194
Properties=species:S:1:pos:R:3 pbc="F F F"
C        1.79038697       1.79038697      -1.79038697
C        3.16537707       1.81949358      -1.58804450
C        3.97067625       2.64056775      -2.38644129
C        3.41390413       3.47449074      -3.36296588
C        2.03193643       3.37699738      -3.58815457
C        1.21912454       2.55537574      -2.79988520
N        4.16741924       4.29831160      -4.19937027
C        5.44345251       4.90521405      -3.73594864
H        6.08763827       4.16253158      -3.25142617
C        6.19843742       5.33897963      -4.99357332
C        6.65537163       4.34760207      -5.88473258
C        7.36773418       4.68629704      -7.03750295
C        7.63085944       6.02361256      -7.31433515
C        7.17782936       7.02163493      -6.45524049
C        6.45918292       6.68142587      -5.30391316
P        5.10502326       6.17755248      -2.45509284
O        6.22760724       7.10731099      -2.09692039
O        3.78104255       6.95430095      -2.98093032
C        2.72338842       7.17658197      -2.05941521
C        3.24662773       7.37358989      -0.64521061
C        3.94046761       6.11156397      -0.12485679
H        4.72125358       6.39113455       0.59132532
C        2.95764261       5.17673370       0.57114827
O        4.54283288       5.37165230      -1.17421051
H        3.62673720       1.20925798      -0.81555423
H        5.04134314       2.61510946      -2.20944626
H        1.56702385       3.95589780      -4.38293273
H        0.14980647       2.52053715      -2.98740391
H        3.59135259       5.01001023      -4.64957154
H        6.44645897       3.29775519      -5.68094011
H        7.70949164       3.90151705      -7.70703318
H        7.38097148       8.06790395      -6.66731740
H        6.12460014       7.49295882      -4.66107022
H        2.18891916       8.07488053      -2.38419893
H        2.02487421       6.33598765      -2.11644961
H        3.98613711       8.18432572      -0.66632242
H        2.44661474       7.69162617       0.03189803
H        2.17809952       4.83695078      -0.11888299
H        2.48081576       5.66396503       1.42655855
H        3.47350562       4.27797414       0.92636964
C        8.37518952       6.37827786      -8.49492198
C        8.99856596       6.67531005      -9.48366345
Br      10.00651295       7.15558598     -11.08237477
C       -1.79038697      -1.79038697      -1.79038697
C       -1.20981253      -2.74059799      -2.62250463
C       -2.01829066      -3.53712119      -3.44227344
C       -3.40711914      -3.36696476      -3.47727685
C       -3.97063789      -2.44553970      -2.58091079
C       -3.17213643      -1.64883618      -1.75341288
N       -4.26317176      -4.14293648      -4.25899286
C       -3.82420376      -4.69028727      -5.57012417
H       -2.83944892      -5.16581554      -5.49633157
C       -4.79599909      -5.82013013      -5.91486116
C       -4.80596174      -6.97472157      -5.10702298
C       -5.65833330      -8.04497465      -5.38822621
C       -6.51404362      -7.97255427      -6.48220926
C       -6.53136593      -6.83624744      -7.28709141
C       -5.68130250      -5.76237350      -7.00084594
P       -3.62560331      -3.32702039      -6.78504487
O       -3.49236806      -3.70899168      -8.23047888
O       -4.87798461      -2.33442423      -6.50386499
C       -4.61957168      -0.94185934      -6.39795458
C       -3.45962469      -0.51967632      -7.28612721
C       -2.14980862      -1.18021969      -6.84686007
H       -1.49510418      -1.31007432      -7.71588431
C       -1.41600027      -0.33745138      -5.80977640
O       -2.37256934      -2.45330140      -6.26282494
H       -0.13127339      -2.87568004      -2.64459597
H       -1.52503067      -4.28185967      -4.05900851
H       -5.05066578      -2.32977440      -2.52541420
H       -3.64048343      -0.93009933      -1.08716476
H       -5.18270587      -3.71167370      -4.35655480
H       -4.14546614      -7.03707909      -4.24260904
H       -5.64466413      -8.92398312      -4.74939463
H       -7.19820725      -6.77503338      -8.14295220
H       -5.72792459      -4.89485937      -7.65584521
H       -5.52939415      -0.41541907      -6.70318540
H       -4.43156269      -0.69801665      -5.34773212
H       -3.67913160      -0.84726264      -8.31039102
H       -3.36086295       0.57072962      -7.31620956
H       -2.01735516      -0.21362109      -4.90295703
H       -1.16707151       0.65227548      -6.20342622
H       -0.48820200      -0.83308243      -5.50382569
C       -7.38648880      -9.07763374      -6.78426682
C       -8.11716164     -10.00313780      -7.03724002
Br      -9.29859782     -11.49959959      -7.44627630
C       -1.79038697       1.79038697       1.79038697
C       -1.20745066       2.68022975       2.68523475
C       -2.01689792       3.47631262       3.50447475
C       -3.41174705       3.36416916       3.47544454
C       -3.97374548       2.50496003       2.51838286
C       -3.17393571       1.70943773       1.69101205
N       -4.26790476       4.14331668       4.25387967
C       -3.86318260       4.61746669       5.60396591
H       -2.85757831       5.05324253       5.59077519
C       -4.80181795       5.77264611       5.95652632
C       -4.73020091       6.95864580       5.19885958
C       -5.54934879       8.05184837       5.49033701
C       -6.45311559       7.97131309       6.54437847
C       -6.55109732       6.80484887       7.29875859
C       -5.73418672       5.70833600       7.00199923
P       -3.77235027       3.19849451       6.76682379
O       -3.68530255       3.51508792       8.23144815
O       -5.05111687       2.27244791       6.39270904
C       -4.84552258       0.87563036       6.23823266
C       -3.74266538       0.36850715       7.15425569
C       -2.38944490       0.99005995       6.79738352
H       -1.76758664       1.05631139       7.69716478
C       -1.64717136       0.15986866       5.75618802
O       -2.53494658       2.29426475       6.25948436
H       -0.12621429       2.76824226       2.75709286
H       -1.52034383       4.17355659       4.17199844
H       -5.05425639       2.43765844       2.41393955
H       -3.64244958       1.03911145       0.97618650
H       -5.20760623       3.74798078       4.29534736
H       -4.03149637       7.02807272       4.36558518
H       -5.47259469       8.95483587       4.89061131
H       -7.25572557       6.73718302       8.12328424
H       -5.84405536       4.81756581       7.61700799
H       -5.78826084       0.37638707       6.48335071
H       -4.62307493       0.66710173       5.18713481
H       -3.99203009       0.66303515       8.18172001
H       -3.68989407      -0.72543345       7.14188228
H       -2.21391740       0.09890279       4.82111310
H       -1.45586577      -0.85481324       6.11716971
H       -0.68771636       0.62762028       5.50977347
C       -7.29176776       9.09928446       6.85733714
C       -7.99413895      10.04396048       7.11944003
Br      -9.12981375      11.57142172       7.54323823
C        1.79038697      -1.79038697       1.79038697
C        3.16770781      -1.60269636       1.80251099
C        3.97638983      -2.42235896       2.59893650
C        3.43017754      -3.46526643       3.35591678
C        2.03231353      -3.59052517       3.37424968
C        1.21483386      -2.77291243       2.58663920
N        4.18350465      -4.30048904       4.18110741
C        5.58899739      -4.65089668       3.84472112
H        6.16887864      -3.76213260       3.57058479
C        6.22646646      -5.16977408       5.13474983
C        6.39961263      -4.27693856       6.21115510
C        6.99465281      -4.69217791       7.40470345
C        7.42316251      -6.00867680       7.53696784
C        7.25056489      -6.91248248       6.49165741
C        6.64894555      -6.49683002       5.29874637
P        5.62790342      -5.74210746       2.36765769
O        6.91935018      -6.44546782       2.06702062
O        4.38250551      -6.76194502       2.57182329
C        3.50582142      -6.97807332       1.47549087
C        4.23849333      -6.88043815       0.14649674
C        4.79093112      -5.47117944      -0.08522220
H        5.69474842      -5.52841697      -0.70210259
C        3.77705484      -4.57997467      -0.79380146
O        5.12430114      -4.82953129       1.13486325
H        3.62796540      -0.82327514       1.20030886
H        5.04399058      -2.22608901       2.59581927
H        1.56070776      -4.34322750       4.00191912
H        0.13775291      -2.91163087       2.60836374
H        3.67007341      -5.14443918       4.43642178
H        6.05909917      -3.24585562       6.12019948
H        7.11701235      -3.98249309       8.21853644
H        7.58376143      -7.94212872       6.59030268
H        6.53418781      -7.23588714       4.50855421
H        3.07899279      -7.97952516       1.58948067
H        2.68371071      -6.25813522       1.53546554
H        5.08557923      -7.57781509       0.17339092
H        3.59602622      -7.19372014      -0.68340347
H        2.86859258      -4.45957327      -0.19423257
H        3.50115622      -4.98767227      -1.77060625
H        4.18969106      -3.57583228      -0.94041323
C        8.04823738      -6.43958205       8.76056993
C        8.57173759      -6.80046519       9.78533668
Br       9.41819314      -7.38398272      11.44229784
C       -0.00445707       0.01189536      -1.78238275
H       -0.66409135       0.67374010      -2.43557963
H        0.65740317      -0.63156657      -2.45157240
C       -0.90989263      -0.90692880      -0.91072765
C        0.90977584       0.90977584      -0.90977584
C       -0.00465871       1.77757030       0.00794375
H       -0.66225468       2.44313916      -0.64384735
H        0.64322798       2.43503045       0.67728295
C       -1.78241447       0.00034974      -0.00472694
H       -2.45427497      -0.65498947       0.64260836
H       -2.43311707       0.67328779      -0.65473579
C       -0.91132561       0.90220522       0.91563759
C       -0.01476271      -0.02253852       1.78660255
H       -0.67934791      -0.69751639       2.42135241
H        0.63392994       0.61504881       2.47327442
C        0.01484550      -1.77751727      -0.01636693
H        0.67870853      -2.42144646      -0.68295456
H       -0.62264859      -2.45592969       0.64226336
C        1.78714474       0.01002794       0.00389507
H        2.44202412       0.67113390       0.66197326
H        2.45385902      -0.65136977      -0.64189061
C        0.91606151      -0.90478549       0.90901405
