173
Properties=species:S:1:pos:R:3 pbc="F F F"
C        0.00000000       0.00000000       0.00000000
C        0.88048295       0.88048295      -0.88048295
C        2.25547305       0.90958955      -0.67814048
C        3.06077222       1.73066373      -1.47653727
C        2.50400011       2.56458671      -2.45306186
C        1.12203240       2.46709336      -2.67825054
C        0.30922051       1.64547172      -1.88998118
N        3.25751521       3.38840758      -3.28946624
C        4.53354848       3.99531003      -2.82604462
H        5.17773425       3.25262756      -2.34152215
C        5.28853339       4.42907561      -4.08366930
C        5.74546761       3.43769805      -4.97482856
C        6.45783015       3.77639301      -6.12759893
C        6.72095541       5.11370854      -6.40443113
C        6.26792533       6.11173091      -5.54533647
C        5.54927890       5.77152184      -4.39400914
P        4.19511924       5.26764845      -1.54518881
O        5.31770322       6.19740696      -1.18701636
O        2.87113853       6.04439692      -2.07102630
C        1.81348439       6.26667795      -1.14951119
C        2.33672370       6.46368586       0.26469342
C        3.03056359       5.20165995       0.78504724
H        3.81134955       5.48123053       1.50122935
C        2.04773859       4.26682968       1.48105229
O        3.63292885       4.46174828      -0.26430648
H        2.71683318       0.29935395       0.09434979
H        4.13143912       1.70520543      -1.29954223
H        0.65711983       3.04599377      -3.47302871
H       -0.76009756       1.61063312      -2.07749989
H        2.68144857       4.10010621      -3.73966752
H        5.53655495       2.38785116      -4.77103609
H        6.79958762       2.99161303      -6.79712916
H        6.47106745       7.15799992      -5.75741338
H        5.21469611       6.58305479      -3.75116619
H        1.27901514       7.16497650      -1.47429490
H        1.11497018       5.42608363      -1.20654558
H        3.07623308       7.27442170       0.24358160
H        1.53671072       6.78172215       0.94180205
H        1.26819549       3.92704675       0.79102103
H        1.57091174       4.75406101       2.33646258
H        2.56360159       3.36807012       1.83627366
C        7.46528550       5.46837384      -7.58501796
C        8.08866194       5.76540603      -8.57375942
Br       9.09660893       6.24568195     -10.17247075
C       -0.88048295      -0.88048295      -0.88048295
C       -0.30084435      -1.84091574      -1.70144299
C       -1.10915354      -2.63752192      -2.52129776
C       -2.49641433      -2.45757451      -2.56765984
C       -3.05967323      -1.52558107      -1.68212199
C       -2.26139482      -0.72866599      -0.85461260
N       -3.35242113      -3.23300833      -3.34995957
C       -2.90797537      -3.79307032      -4.65385743
H       -1.92727477      -4.27516503      -4.56944415
C       -3.88546328      -4.91833177      -4.99748325
C       -3.90969454      -6.06689863      -4.18140104
C       -4.76779040      -7.13297474      -4.46105695
C       -5.61500684      -7.06234106      -5.56174717
C       -5.61821385      -5.93183874      -6.37494011
C       -4.76243611      -4.86208849      -6.09028528
P       -2.69064711      -2.44017361      -5.87713578
O       -2.54973950      -2.83363075      -7.31875629
O       -3.93775915      -1.43651189      -5.61229071
C       -3.66997084      -0.04511908      -5.51458361
C       -2.50057571       0.36216618      -6.39730662
C       -1.19882641      -0.30462195      -5.94372793
H       -0.53881175      -0.44554755      -6.80699143
C       -0.46641917       0.54035235      -4.90744916
O       -1.43508829      -1.57176433      -5.35213099
H        0.77681265      -1.98396050      -1.71468949
H       -0.61688568      -3.39029011      -3.12901100
H       -4.13920163      -1.40159766      -1.63534302
H       -2.72929912      -0.00171734      -0.19701899
H       -4.26805518      -2.79582232      -3.45734480
H       -3.25594702      -6.12773083      -3.31176435
H       -4.76515766      -8.00737683      -3.81579532
H       -6.27837702      -5.87204163      -7.23606210
H       -4.79798679      -3.99905946      -6.75187085
H       -4.57369610       0.48565458      -5.83024503
H       -3.48779717       0.20500871      -4.46481093
H       -2.71504432       0.02871657      -7.42074543
H       -2.39364918       1.45158012      -6.43456176
H       -1.07340468       0.67514331      -4.00595983
H       -0.20743552       1.52535384      -5.30642849
H        0.45550041       0.04026140      -4.59115986
C       -6.49327826      -8.16324848      -5.86215055
C       -7.22883057      -9.08525844      -6.11373839
Br      -8.41815644     -10.57607056      -6.52053463
C       -0.88048295       0.88048295       0.88048295
C       -0.52959155       2.20630938       1.10730215
C       -1.33010029       3.00894782       1.92892511
C       -2.46152994       2.49066675       2.56945199
C       -2.82700298       1.16859706       2.27177625
C       -2.03725203       0.35990857       1.44751282
N       -3.30568697       3.24681292       3.38288915
C       -2.78236284       4.37661888       4.19592141
H       -2.13751424       5.03346227       3.60090744
C       -3.99169455       5.23194557       4.57763818
C       -4.69186790       5.90773055       3.55839576
C       -5.79056761       6.71842157       3.85283292
C       -6.20414729       6.86203503       5.17291276
C       -5.53597666       6.19343496       6.19558109
C       -4.43921524       5.37690671       5.89868791
P       -1.72062652       3.73620993       5.55112006
O       -1.35949712       4.69178042       6.65084901
O       -2.48726801       2.41092159       6.08837216
C       -1.72694253       1.22613904       6.27659197
C       -0.29944300       1.53920158       6.69707157
C        0.45252950       2.29903154       5.60067425
H        1.21074818       2.94554962       6.05654930
C        1.14660470       1.34735514       4.63276554
O       -0.41917021       3.10990510       4.82990831
H        0.36149543       2.63133330       0.65199946
H       -1.03158303       4.04428668       2.06031708
H       -3.73645846       0.74645130       2.69323256
H       -2.33829981      -0.66595294       1.25568859
H       -3.90507594       2.65621579       3.95993057
H       -4.38079062       5.79439899       2.52025259
H       -6.31168940       7.22913500       3.04750541
H       -5.85541266       6.30254032       7.22852777
H       -3.94699178       4.87364554       6.72827978
H       -2.22183943       0.63947817       7.05696895
H       -1.75482858       0.63998774       5.35278308
H       -0.34012750       2.17908267       7.58786301
H        0.23692142       0.62864729       6.98490494
H        0.42197167       0.70552486       4.12066801
H        1.87357882       0.71343589       5.14865310
H        1.66945314       1.91185306       3.85299812
C       -7.32868460       7.70597020       5.48402249
C       -8.27048460       8.41276591       5.74457688
Br      -9.79329554       9.55559479       6.16587130
C        0.88048295      -0.88048295       0.88048295
C        1.96796437      -0.32801191       1.54722680
C        2.78498832      -1.14068716       2.34229775
C        2.55706958      -2.51768995       2.44688915
C        1.41599609      -3.03624002       1.81514019
C        0.58982881      -2.23170644       1.02313816
N        3.32544117      -3.37218659       3.23776127
C        4.77287099      -3.11749198       3.46454016
H        4.95736256      -2.07315312       3.74136827
C        5.16996003      -3.93927045       4.69204783
C        4.61607897      -3.59945714       5.94245811
C        4.95959309      -4.30304327       7.09918574
C        5.86193726      -5.35831736       7.01884046
C        6.41209836      -5.72091063       5.79198373
C        6.06261610      -5.01915207       4.63304170
P        5.70984098      -3.38981954       1.90829598
O        7.20412924      -3.48430919       2.01368811
O        5.03606056      -4.70747206       1.24302914
C        4.70063438      -4.66548738      -0.13644822
C        5.66590975      -3.78959505      -0.91978866
C        5.58720253      -2.32843204      -0.46845827
H        6.56021875      -1.84634827      -0.61521629
C        4.53875815      -1.55251559      -1.25775776
O        5.23809602      -2.21908181       0.90180579
H        2.19316160       0.73207793       1.46075366
H        3.60933740      -0.66372587       2.86312352
H        1.16209402      -4.08798715       1.92606114
H       -0.27313292      -2.67052626       0.53064212
H        3.18338843      -4.35093075       2.98690312
H        3.90153533      -2.77990639       6.01400048
H        4.51839404      -4.01908771       8.05084805
H        7.11756052      -6.54471374       5.72420649
H        6.51630167      -5.33626367       3.69635175
H        4.74203265      -5.69156356      -0.51530967
H        3.66835459      -4.31606149      -0.23681668
H        6.68449934      -4.15057122      -0.72799738
H        5.49546647      -3.87917749      -1.99801314
H        3.53917076      -1.97457653      -1.10952608
H        4.76423875      -1.55237652      -2.32810511
H        4.49352076      -0.51398520      -0.91210791
C        6.22919825      -6.07970879       8.20977025
C        6.53677932      -6.68387411       9.20717395
Br       7.03411190      -7.66075835      10.81989138
