177
Properties=species:S:1:pos:R:3 pbc="F F F"
C        0.00000000       0.00000000       0.00000000
C        5.53315599       7.63192074      -0.56413113
O        4.86075756       6.49348047      -1.08251179
C        3.68497059       6.72659544      -1.75139038
C        2.91021592       7.88313884      -1.57959611
C        1.73107225       8.06597607      -2.30602919
C        1.31249273       7.09319702      -3.20461265
C        2.06760693       5.93300078      -3.36619283
C        3.25362719       5.72075275      -2.63731285
C        4.10271215       4.46669579      -2.87751082
H        4.66509958       4.21055633      -1.97103877
C        5.08788874       4.68832704      -4.03073282
C        4.43148927       3.99112412      -5.18172542
N        3.50522331       3.09379925      -4.78928031
N        3.32709769       3.29959637      -3.33422235
C        2.52178570       2.51493337      -2.50997395
C        1.78776654       1.44310780      -3.04230428
C        0.97350309       0.63102311      -2.24555749
C        0.88244452       0.88244452      -0.88244452
C        1.59331219       1.93517297      -0.31811873
C        2.40121559       2.74066076      -1.13064977
C        4.69534436       4.29011647      -6.59428793
C        5.75271186       5.13326175      -6.96888382
C        5.97836025       5.46041224      -8.31040661
C        5.14673613       4.93991283      -9.29656480
Br       5.43981805       5.39275326     -11.10912959
C        4.09835069       4.09091245      -8.95553800
C        3.88081149       3.77085858      -7.61183705
H        6.53517651       7.31695917      -0.25690286
H        5.02075331       8.01673239       0.32350074
H        5.64915829       8.41330883      -1.32348425
H        3.19925476       8.65934135      -0.88091100
H        1.14222353       8.96757235      -2.17310970
H        0.40516277       7.22324975      -3.78602333
H        1.74463980       5.17362086      -4.07901138
H        6.04271607       4.19194899      -3.81238120
H        5.28734551       5.74919824      -4.21407398
H        1.85921855       1.24349961      -4.10848230
H        0.42630251      -0.18376298      -2.70787875
H        1.53357146       2.14695006       0.74413316
H        2.94132951       3.55824304      -0.66582651
H        6.41199674       5.54646198      -6.21302563
H        6.80006426       6.12267780      -8.56342761
H        3.43968198       3.67675684      -9.71072167
H        3.05216114       3.11645733      -7.34609841
C       -6.43034263      -0.39411003      -6.90475519
O       -5.57828309      -0.94653732      -5.91192940
C       -6.16462784      -1.28148366      -4.71684491
C       -7.37422725      -0.73364495      -4.26507867
C       -7.92592265      -1.13207587      -3.04507898
C       -7.27156124      -2.07534111      -2.26340005
C       -6.05974116      -2.60966460      -2.69739478
C       -5.47808712      -2.21576722      -3.91783845
C       -4.17693835      -2.86344461      -4.40653580
H       -3.62666059      -2.16782785      -5.05220624
C       -4.46859010      -4.14809283      -5.19026567
C       -4.17778093      -5.22980434      -4.19675354
N       -3.39874690      -4.80945809      -3.18009788
N       -3.30235837      -3.33891057      -3.31964747
C       -2.51257954      -2.51171856      -2.52239492
C       -1.73861352      -3.05161901      -1.48294610
C       -0.93035825      -2.25373364      -0.66599180
C       -0.88244452      -0.88244452      -0.88244452
C       -1.63516130      -0.31018813      -1.90125447
C       -2.44178767      -1.12296117      -2.70777728
C       -4.73247004      -6.58725244      -4.26002628
C       -5.43183670      -7.02969117      -5.39332956
C       -6.00451709      -8.30544976      -5.43921224
C       -5.87780584      -9.15802365      -4.34738428
Br      -6.66406955     -10.87712817      -4.40050318
C       -5.17871847      -8.75080322      -3.21527945
C       -4.61087440      -7.47348669      -3.17914603
H       -5.87812732      -0.38141677      -7.84949445
H       -6.69307536       0.64041364      -6.66132325
H       -7.32754098      -1.00542283      -7.05298756
H       -7.90861548       0.01153503      -4.84242665
H       -8.86636055      -0.70934937      -2.70719567
H       -7.69091775      -2.40533845      -1.31817964
H       -5.55078291      -3.35772934      -2.08875980
H       -3.77111833      -4.24285966      -6.03306825
H       -5.48930437      -4.17580183      -5.58551154
H       -1.77321831      -4.12477975      -1.31320240
H       -0.35295040      -2.72177932       0.12431144
H       -1.61096294       0.75879921      -2.08422463
H       -3.02259886      -0.65042559      -3.49237460
H       -5.53863732      -6.37853136      -6.25431568
H       -6.54622327      -8.61153167      -6.32841474
H       -5.07074017      -9.40162846      -2.35479186
H       -4.07511199      -7.15224441      -2.28736049
C       -5.54528476       7.62337710       0.56054599
O       -4.87004320       6.48698412       1.07972250
C       -3.69351296       6.72326432       1.74617912
C       -2.92104233       7.88083800       1.57107054
C       -1.74097031       8.06694525       2.29516194
C       -1.31917942       7.09643091       3.19469208
C       -2.07202088       5.93522053       3.35955913
C       -3.25892314       5.71968657       2.63308308
C       -4.10543898       4.46458965       2.87689013
H       -4.66893943       4.20592891       1.97182634
C       -5.08901546       4.68651188       4.03142126
C       -4.42944587       3.99241442       5.18247851
N       -3.50231403       3.09600665       4.78998220
N       -3.32703822       3.29960869       3.33426950
C       -2.52179418       2.51491310       2.50998573
C       -1.78502261       1.44526428       3.04289174
C       -0.97073285       0.63320968       2.24614116
C       -0.88244452       0.88244452       0.88244452
C       -1.59608675       1.93298101       0.31753613
C       -2.40397806       2.73847676       1.13007130
C       -4.69139108       4.29338030       6.59497737
C       -5.74956160       5.13535313       6.96994271
C       -5.97347045       5.46442054       8.31128811
C       -5.13926305       4.94704341       9.29690731
Br      -5.43001325       5.40249404      11.10919361
C       -4.09000692       4.09925778       8.95553644
C       -3.87422317       3.77726931       7.61201465
H       -6.54728814       7.30616995       0.25558045
H       -5.03506721       8.00754141      -0.32862366
H       -5.66132681       8.40586860       1.31875596
H       -3.21261232       8.65534203       0.87155276
H       -1.15390037       8.96932050       2.15968472
H       -0.41107835       7.22903844       3.77431906
H       -1.74652737       5.17762152       4.07312315
H       -6.04336164       4.18812242       3.81556218
H       -5.28997990       5.74735286       4.21328498
H       -1.85430275       1.24736596       4.10953174
H       -0.42134100      -0.17984112       2.70891840
H       -1.53853202       2.14303485      -0.74517850
H       -2.94629236       3.55433160       0.66477509
H       -6.41085091       5.54612267       6.21451077
H       -6.79587592       6.12570950       8.56458426
H       -3.42933330       3.68753064       9.71029656
H       -3.04490670       3.12383471       7.34597548
C        0.55308568      -5.57089056       7.60523162
O        1.07391655      -4.88964719       6.47318608
C        1.73523234      -3.71157764       6.71614643
C        1.55312613      -2.94395880       7.87586594
C        2.27224477      -1.76195642       8.06887631
C        3.17374475      -1.33338583       7.10317182
C        3.34555139      -2.08139964       5.93984952
C        2.62417953      -3.27013384       5.71737943
C        2.87560562      -4.11119365       4.46011949
H        1.97353866      -4.67702427       4.19613175
C        4.03289287      -5.09138261       4.68267312
C        5.18405134      -4.42513023       3.99515724
N        4.79143671      -3.49617385       3.10069231
N        3.33436874      -3.32691233       3.29963533
C        2.51001081      -2.52181194       2.51487027
C        3.04410563      -1.77923223       1.44984076
C        2.24734673      -0.96488708       0.63784988
C        0.88244452      -0.88244452       0.88244452
C        0.31633288      -1.60194161       1.92832940
C        1.12887666      -2.40980740       2.73384206
C        6.59639373      -4.68305048       4.30030454
C        6.97215103      -5.74290944       5.13979696
C        8.31310089      -5.96315365       5.47292455
C        9.29754872      -5.12350724       4.96215781
Br      11.10921851      -5.40934575       5.42313663
C        8.95543889      -4.07241975       4.11694249
C        7.61231657      -3.86033414       3.79085642
H        0.25291494      -6.57283224       7.28329136
H       -0.33931804      -5.06529623       7.98800677
H        1.30887361      -5.68702932       8.39004844
H        0.85187242      -3.24087340       8.64676129
H        2.13136749      -1.17866473       8.97287336
H        3.74958316      -0.42367956       7.24117313
H        4.06066662      -1.75057254       5.18603288
H        3.82231036      -6.04468647       4.18004942
H        4.21164275      -5.29554163       5.74343335
H        4.11170011      -1.84392927       1.25557108
H        2.71106550      -0.41087128      -0.17151851
H       -0.74733768      -1.54899981       2.13472624
H        0.66260308      -2.95676506       3.54603092
H        6.21764502      -6.40841892       5.54542041
H        8.56698802      -6.78703458       6.13214708
H        9.70927880      -3.40752491       3.71035678
H        7.34563302      -3.02961702       3.13946685
