198
Properties=species:S:1:pos:R:3 pbc="F F F"
C        6.44306001       8.54182477      -1.47403515
O        5.77066158       7.40338449      -1.99241581
C        4.59487461       7.63649946      -2.66129441
C        3.82011994       8.79304286      -2.48950014
C        2.64097627       8.97588009      -3.21593321
C        2.22239675       8.00310105      -4.11451668
C        2.97751096       6.84290480      -4.27609686
C        4.16353121       6.63065678      -3.54721687
C        5.01261618       5.37659981      -3.78741484
H        5.57500360       5.12046036      -2.88094280
C        5.99779276       5.59823106      -4.94063684
C        5.34139330       4.90102814      -6.09162944
N        4.41512733       4.00370328      -5.69918434
N        4.23700172       4.20950039      -4.24412637
C        3.43168972       3.42483740      -3.41987797
C        2.69767057       2.35301182      -3.95220830
C        1.88340711       1.54092714      -3.15546151
C        1.79234854       1.79234854      -1.79234854
C        2.50321621       2.84507700      -1.22802275
C        3.31111962       3.65056479      -2.04055379
C        5.60524839       5.20002049      -7.50419195
C        6.66261588       6.04316578      -7.87878784
C        6.88826427       6.37031627      -9.22031063
C        6.05664016       5.84981686     -10.20646882
Br       6.34972207       6.30265728     -12.01903362
C        5.00825471       5.00081648      -9.86544202
C        4.79071552       4.68076261      -8.52174108
H        7.44508053       8.22686319      -1.16680688
H        5.93065734       8.92663641      -0.58640329
H        6.55906231       9.32321286      -2.23338827
H        4.10915878       9.56924537      -1.79081502
H        2.05212755       9.87747638      -3.08301372
H        1.31506679       8.13315378      -4.69592735
H        2.65454383       6.08352489      -4.98891540
H        6.95262009       5.10185301      -4.72228522
H        6.19724954       6.65910227      -5.12397801
H        2.76912257       2.15340363      -5.01838632
H        1.33620653       0.72614105      -3.61778277
H        2.44347549       3.05685409      -0.16577087
H        3.85123353       4.46814706      -1.57573054
H        7.32190077       6.45636601      -7.12292966
H        7.70996829       7.03258183      -9.47333163
H        4.34958601       4.58666087     -10.62062569
H        3.96206516       4.02636136      -8.25600243
C       -2.10703020      -5.02878084      -9.32310888
O       -2.48152232      -4.68890411      -7.99603546
C       -3.37799260      -3.65891349      -7.85576239
C       -3.59153258      -2.67689967      -8.83423069
C       -4.53331727      -1.66456219      -8.63491012
C       -5.26456005      -1.62050318      -7.45495125
C       -5.04382690      -2.58209843      -6.47058729
C       -4.09227881      -3.60563072      -6.64349534
C       -3.91103813      -4.69050592      -5.57508678
H       -2.88747210      -5.08422356      -5.60471110
C       -4.89643468      -5.84354759      -5.79667840
C       -5.96995110      -5.57632783      -4.78777195
N       -5.56328947      -4.75790289      -3.79682259
N       -4.23804081      -4.24327451      -4.20931316
C       -3.41887925      -3.43038020      -3.42714564
C       -3.83155304      -3.02263355      -2.14870410
C       -3.03459960      -2.21169573      -1.33350043
C       -1.79234854      -1.79234854      -1.79234854
C       -1.34887334      -2.17437127      -3.05307136
C       -2.16071740      -2.98367169      -3.85784910
C       -7.34618390      -6.07694553      -4.88633140
C       -7.70149938      -7.02709476      -5.85597537
C       -9.02197362      -7.47106202      -5.98585553
C      -10.00466231      -6.96981793      -5.13844559
Br     -11.79311994      -7.55645010      -5.32184292
C       -9.67884255      -6.03642038      -4.15925029
C       -8.35636795      -5.59856292      -4.03828833
H       -1.57124751      -5.98226793      -9.28523517
H       -1.42337560      -4.28154401      -9.73877742
H       -2.98254763      -5.16547147      -9.96764434
H       -3.03346639      -2.67268463      -9.76306816
H       -4.69813053      -0.91377871      -9.40070842
H       -6.00857651      -0.84811399      -7.28745743
H       -5.62492513      -2.55374992      -5.54830907
H       -4.41596861      -6.80187215      -5.55891756
H       -5.26250465      -5.89029662      -6.82752854
H       -4.80253266      -3.35136463      -1.78701524
H       -3.40189344      -1.92430004      -0.35393688
H       -0.38221316      -1.85562627      -3.42826102
H       -1.79283629      -3.26323709      -4.83903775
H       -6.94752315      -7.42985034      -6.52382294
H       -9.26295022      -8.20017252      -6.75275900
H      -10.43186118      -5.63428048      -3.49073091
H       -8.10602474      -4.85871895      -3.27968527
C       -8.75250541       6.12782908       1.57858543
O       -7.54239724       5.56266374       2.06140090
C       -6.44162502       6.38270554       2.06833792
C       -6.31811155       7.52323601       1.26131538
C       -5.17664191       8.32558653       1.33056113
C       -4.14679438       7.99239574       2.20082435
C       -4.25479544       6.84996969       2.99174750
C       -5.39033424       6.01936386       2.93170677
C       -5.51664032       4.80308055       3.85690995
H       -6.14855590       4.03671561       3.39113525
C       -6.12860000       5.20422823       5.20383245
C       -4.94008690       5.28295163       6.11101235
N       -3.87412655       4.60900652       5.63488188
N       -4.22325392       4.21642300       4.25095156
C       -3.43213369       3.42077263       3.42349876
C       -2.19352637       2.93630068       3.87306364
C       -1.37520276       2.13137222       3.07322078
C       -1.79234854       1.79234854       1.79234854
C       -3.01205069       2.25338182       1.31088345
C       -3.81760685       3.06118291       2.12344842
C       -4.89177455       6.06646139       7.35122489
C       -6.05230472       6.64894175       7.88332304
C       -6.00341532       7.43723983       9.03823602
C       -4.78668096       7.64735728       9.67888760
Br      -4.71510559       8.72509635      11.23121103
C       -3.62180836       7.07159566       9.18110920
C       -3.68130520       6.28615370       8.02576030
H       -9.56619859       5.44109989       1.83145212
H       -8.72928202       6.22594885       0.48846616
H       -8.96881995       7.08932271       2.05752078
H       -7.09603248       7.80970366       0.56348304
H       -5.09305256       9.21082186       0.70874323
H       -3.25753240       8.61021545       2.27640007
H       -3.45088453       6.59363206       3.68246753
H       -6.79915393       4.41303353       5.56457086
H       -6.69970929       6.13649129       5.14412924
H       -1.86618744       3.19886981       4.87585528
H       -0.42647817       1.78457713       3.46907506
H       -3.35351303       1.99959953       0.31298788
H       -4.76215037       3.41133108       1.72162969
H       -7.00974699       6.49390445       7.39754499
H       -6.91913502       7.87971308       9.41703365
H       -2.66468017       7.22534969       9.66684270
H       -2.76659383       5.84699237       7.63084275
C        5.78567148      -1.71616420       8.95708425
O        5.30119203      -2.16533063       7.69993923
C        6.17065584      -2.08090337       6.64110927
C        7.27518000      -1.21693397       6.61054897
C        8.13189841      -1.19351923       5.50737193
C        7.88932942      -2.02727458       4.42341047
C        6.78285055      -2.87451589       4.43914618
C        5.89866142      -2.90813449       5.53460895
C        4.72415951      -3.89365907       5.55881225
H        3.90768301      -3.49504957       6.17367417
C        5.16144027      -5.24868182       6.12653858
C        5.33899095      -6.09251427       4.90254566
N        4.69278110      -5.59691903       3.82831482
N        4.21778220      -4.25120530       4.22164098
C        3.42037924      -3.42404384       3.43198200
C        3.01611698      -3.83491827       2.15185545
C        2.21205502      -3.03441406       1.33332668
C        1.79234854      -1.79234854       1.79234854
C        2.17255185      -1.34981291       3.05395121
C        2.98068794      -2.16225824       3.85929202
C        6.18314560      -7.29134111       4.83497412
C        6.73643637      -7.85159832       5.99653482
C        7.58125671      -8.96506797       5.93256649
C        7.87828020      -9.53552318       4.69912246
Br       9.03222145     -11.03101665       4.60817487
C        7.33355910      -9.00898696       3.53196716
C        6.49107650      -7.89546488       3.60667782
H        5.07510800      -2.03971410       9.72392851
H        5.83175480      -0.62283102       8.98911121
H        6.75823033      -2.16003080       9.19740231
H        7.49115306      -0.54516041       7.43290571
H        8.98884034      -0.52808678       5.49569053
H        8.55057018      -2.03094999       3.56262775
H        6.59779716      -3.53653811       3.59264886
H        4.35850276      -5.67774935       6.74050621
H        6.06228514      -5.17368803       6.74435664
H        3.34189390      -4.80742345       1.79159519
H        1.92914167      -3.39939317       0.35159551
H        1.85512609      -0.38247145       3.42850290
H        3.26685089      -1.79097009       4.83729015
H        6.51388014      -7.42053945       6.96677684
H        7.99874443      -9.36696973       6.85016758
H        7.55481825      -9.44007599       2.56197833
H        6.07606449      -7.47737515       2.69098931
C       -0.00445707       0.01189536      -1.78238275
H       -0.66409135       0.67374010      -2.43557963
H        0.65740317      -0.63156657      -2.45157240
C       -0.90989263      -0.90692880      -0.91072765
C        0.90977584       0.90977584      -0.90977584
C       -0.00465871       1.77757030       0.00794375
H       -0.66225468       2.44313916      -0.64384735
H        0.64322798       2.43503045       0.67728295
C       -1.78241447       0.00034974      -0.00472694
H       -2.45427497      -0.65498947       0.64260836
H       -2.43311707       0.67328779      -0.65473579
C       -0.91132561       0.90220522       0.91563759
C       -0.01476271      -0.02253852       1.78660255
H       -0.67934791      -0.69751639       2.42135241
H        0.63392994       0.61504881       2.47327442
C        0.01484550      -1.77751727      -0.01636693
H        0.67870853      -2.42144646      -0.68295456
H       -0.62264859      -2.45592969       0.64226336
C        1.78714474       0.01002794       0.00389507
H        2.44202412       0.67113390       0.66197326
H        2.45385902      -0.65136977      -0.64189061
C        0.91606151      -0.90478549       0.90901405
