185
Properties=species:S:1:pos:R:3 pbc="F F F"
C        0.00000000       0.00000000       0.00000000
C        5.53315599       7.63192074      -0.56413113
O        4.86075756       6.49348047      -1.08251179
C        3.68497059       6.72659544      -1.75139038
C        2.91021592       7.88313884      -1.57959611
C        1.73107225       8.06597607      -2.30602919
C        1.31249273       7.09319702      -3.20461265
C        2.06760693       5.93300078      -3.36619283
C        3.25362719       5.72075275      -2.63731285
C        4.10271215       4.46669579      -2.87751082
H        4.66509958       4.21055633      -1.97103877
C        5.08788874       4.68832704      -4.03073282
C        4.43148927       3.99112412      -5.18172542
N        3.50522331       3.09379925      -4.78928031
N        3.32709769       3.29959637      -3.33422235
C        2.52178570       2.51493337      -2.50997395
C        1.78776654       1.44310780      -3.04230428
C        0.97350309       0.63102311      -2.24555749
C        0.88244452       0.88244452      -0.88244452
C        1.59331219       1.93517297      -0.31811873
C        2.40121559       2.74066076      -1.13064977
C        4.69534436       4.29011647      -6.59428793
C        5.75271186       5.13326175      -6.96888382
C        5.97836025       5.46041224      -8.31040661
C        5.14673613       4.93991283      -9.29656480
C        4.09835069       4.09091245      -8.95553800
C        3.88081149       3.77085858      -7.61183705
H        6.53517651       7.31695917      -0.25690286
H        5.02075331       8.01673239       0.32350074
H        5.64915829       8.41330883      -1.32348425
H        3.19925476       8.65934135      -0.88091100
H        1.14222353       8.96757235      -2.17310970
H        0.40516277       7.22324975      -3.78602333
H        1.74463980       5.17362086      -4.07901138
H        6.04271607       4.19194899      -3.81238120
H        5.28734551       5.74919824      -4.21407398
H        1.85921855       1.24349961      -4.10848230
H        0.42630251      -0.18376298      -2.70787875
H        1.53357146       2.14695006       0.74413316
H        2.94132951       3.55824304      -0.66582651
H        6.41199674       5.54646198      -6.21302563
H        6.80006426       6.12267780      -8.56342761
H        3.43968198       3.67675684      -9.71072167
H        3.05216114       3.11645733      -7.34609841
C        5.36990384       5.28472892     -10.67674524
C        5.55680679       5.57351239     -11.83264636
Br       5.85901306       6.04045084     -13.70164070
C       -6.57139910      -0.38673630      -6.77107246
O       -5.68584738      -0.94153646      -5.80936598
C       -6.23824422      -1.31513655      -4.60957564
C       -7.44912684      -0.80407512      -4.11974891
C       -7.96496684      -1.24090229      -2.89720836
C       -7.27323286      -2.18615709      -2.15091246
C       -6.06003006      -2.68404507      -2.62272542
C       -5.51415751      -2.25107731      -3.84645797
C       -4.21042627      -2.85910672      -4.37738577
H       -3.68973364      -2.13769037      -5.01927068
C       -4.49147827      -4.13263586      -5.18283446
C       -4.15544445      -5.22889060      -4.22000376
N       -3.36339817      -4.81351264      -3.21139207
N       -3.30194997      -3.33851910      -3.32044733
C       -2.51281517      -2.51150666      -2.52237119
C       -1.70455978      -3.05652104      -1.51209781
C       -0.89588787      -2.25881887      -0.69537695
C       -0.88244452      -0.88244452      -0.88244452
C       -1.66970441      -0.30506631      -1.87183317
C       -2.47619554      -1.11783865      -2.67849193
C       -4.68190458      -6.59658426      -4.30125992
C       -5.39642272      -7.02975959      -5.42867512
C       -5.94224804      -8.31657676      -5.49035430
C       -5.77301634      -9.18955819      -4.42063923
C       -5.05804207      -8.79156457      -3.29519451
C       -4.51730000      -7.50308625      -3.24312088
H       -6.04060991      -0.34140480      -7.72702383
H       -6.85100147       0.63621802      -6.49920151
H       -7.45822237      -1.01438650      -6.91334251
H       -8.01214276      -0.05857813      -4.66878622
H       -8.90662833      -0.84647893      -2.52979833
H       -7.66435268      -2.54571387      -1.20436930
H       -5.52167782      -3.43366444      -2.04192978
H       -3.81092397      -4.19370651      -6.04241577
H       -5.51984334      -4.17434927      -5.55642513
H       -1.71218197      -4.13360506      -1.36541343
H       -0.29115925      -2.73096940       0.07171038
H       -1.67268583       0.76790232      -2.03160485
H       -3.08429684      -0.64139903      -3.43970319
H       -5.53629288      -6.36264891      -6.27254256
H       -6.49673375      -8.61525484      -6.37418108
H       -4.91701305      -9.45830401      -2.45184343
H       -3.96902602      -7.18944234      -2.35624853
C       -6.34401109     -10.51030870      -4.47705820
C       -6.82221919     -11.61643725      -4.52430910
Br      -7.59544124     -13.40495356      -4.60070979
C       -8.02089360       4.92214085       0.78617341
O       -6.76978124       4.42673254       1.24023604
C       -5.70489937       5.28989429       1.16816274
C       -5.66173333       6.39969433       0.31152321
C       -4.55297975       7.24943652       0.30066123
C       -3.47597083       6.99458574       1.13974583
C       -3.50421785       5.88284263       1.97974007
C       -4.60549849       5.00551610       2.00067820
C       -4.64353598       3.82492404       2.97845874
H       -5.26102496       3.01497870       2.57069102
C       -5.21715568       4.25718218       4.33261074
C       -3.99750276       4.42146943       5.18536662
N       -2.92425756       3.77154662       4.69249869
N       -3.31195163       3.30768952       3.34127526
C       -2.52210105       2.51052639       2.51406557
C       -1.24724969       2.09542881       2.93050012
C       -0.42874437       1.29125115       2.13008816
C       -0.88244452       0.88244452       0.88244452
C       -2.13872292       1.27356727       0.43431371
C       -2.94409153       2.08165787       1.24677672
C       -3.93224827       5.25749897       6.39000152
C       -5.09382879       5.81465484       6.94637380
C       -5.03162448       6.65191833       8.06563629
C       -3.80000074       6.93735862       8.64585441
C       -2.63298787       6.38852073       8.12329254
C       -2.70591879       5.55366429       7.00392405
H       -8.79432390       4.21446905       1.10024558
H       -8.04559763       4.97541056      -0.30702323
H       -8.25784360       5.89336970       1.23473807
H       -6.47835925       6.62523435      -0.36408650
H       -4.53154907       8.11051789      -0.35916138
H       -2.61102414       7.65024326       1.15316845
H       -2.66319219       5.68812812       2.64595174
H       -5.83898376       3.45548368       4.75257881
H       -5.82871323       5.16243999       4.25946452
H       -0.89117438       2.41266603       3.90736005
H        0.54879383       0.99970852       2.49950359
H       -2.50906891       0.96473974      -0.53742029
H       -3.91783555       2.37646626       0.87109724
H       -6.06268170       5.60109681       6.50770584
H       -5.94910487       7.07272003       8.46434478
H       -1.66439660       6.60078318       8.56198071
H       -1.79023106       5.13545388       6.58903195
C       -3.73245907       7.80827544       9.79064348
C       -3.67589293       8.53766828      10.74940432
Br      -3.58443026       9.71703481      12.29963952
C        0.65923000      -5.24395669       7.82602117
O        1.15634936      -4.63939473       6.64100573
C        1.88052530      -3.48397500       6.79845611
C        1.78770715      -2.65740181       7.92784190
C        2.56739424      -1.50301308       8.03267017
C        3.44085760      -1.16100831       7.00843650
C        3.52410812      -1.96769571       5.87499672
C        2.74048692      -3.13001769       5.74118818
C        2.89460290      -4.03750803       4.51480783
H        1.95665980      -4.57161697       4.31841791
C        4.01593121      -5.06000045       4.73101694
C        5.16225379      -4.48006304       3.96202197
N        4.77012678      -3.57475066       3.04342543
N        3.33307184      -3.32848612       3.29935845
C        2.50970969      -2.52156904       2.51541429
C        3.02596402      -1.85341708       1.39379752
C        2.22927856      -1.03979233       0.58101280
C        0.88244452      -0.88244452       0.88244452
C        0.33437719      -1.52691759       1.98530911
C        1.14680058      -2.33510865       2.79061689
C        6.57437700      -4.79008635       4.21528541
C        6.94122838      -5.82769908       5.08592998
C        8.28511402      -6.09551757       5.36854751
C        9.28115756      -5.32679359       4.77526261
C        8.94722037      -4.29977090       3.89780987
C        7.60113160      -4.03967588       3.62269964
H        0.29962764      -6.24412569       7.56528521
H       -0.19063161      -4.68034471       8.22427187
H        1.44507424      -5.36014381       8.58073331
H        1.11082310      -2.88617244       8.74251156
H        2.49543867      -0.87378533       8.91368158
H        4.06276883      -0.27407867       7.07758835
H        4.21714782      -1.70496913       5.07515509
H        3.73942325      -6.02394711       4.28367589
H        4.23496805      -5.22454130       5.79110838
H        4.07927776      -1.97683528       1.15508742
H        2.67885502      -0.54503244      -0.27346918
H       -0.71497862      -1.41487012       2.23649687
H        0.69512379      -2.82257878       3.64769649
H        6.17751402      -6.43817026       5.55580008
H        8.53247083      -6.90001283       6.05368602
H        9.71019726      -3.68992494       3.42703830
H        7.34167994      -3.22740646       2.94563048
C       10.66446723      -5.59303385       5.07387692
C       11.82298907      -5.81601007       5.32396640
Br      13.69622090      -6.17654376       5.72833994
