138
Properties=species:S:1:pos:R:3 pbc="F F F"
C        1.85636332       1.85636332      -1.85636332
H        2.69805522       2.03302459      -1.17438186
C        1.12916069       3.18768490      -2.04501668
C       -0.09124171       3.24456797      -2.96037558
C        0.11861695       3.11122439      -4.46750086
C        1.44695813       3.62088607      -5.01944754
C        2.47046204       2.52081218      -5.30315653
C        3.18709686       1.83202857      -4.13682057
H        3.85706068       1.10434556      -4.61672578
Br       4.51189210       3.05274052      -3.34309693
C        2.36224118       1.04779590      -3.07755804
O        3.25797123       0.03071071      -2.56622940
C        2.83179278      -1.22296185      -3.08008948
C        1.63073549      -0.95547302      -3.94930059
O        1.26404852       0.40138973      -3.73482594
H        0.79280927       3.53193170      -1.05547526
H        1.84720222       3.95335514      -2.34947989
H       -0.84594877       2.51554348      -2.64151587
H       -0.55655023       4.22610059      -2.79202943
H       -0.68595411       3.68729382      -4.94570744
H       -0.06667176       2.08212891      -4.78890561
H        1.87038838       4.42963433      -4.41874479
H        1.22535504       4.08277379      -5.99244446
H        1.98738271       1.74895020      -5.91645626
H        3.23551835       2.95965769      -5.95986131
H        3.64467819      -1.68296310      -3.64800910
H        2.58903756      -1.88621703      -2.24476857
H        1.86368410      -1.09671902      -5.01042964
H        0.78970010      -1.60943121      -3.69966606
C       -1.85636332      -1.85636332      -1.85636332
H       -1.24571016      -1.89202427      -2.76772723
C       -3.12093758      -1.06082662      -2.18009807
C       -4.16907253      -0.85524073      -1.08938858
C       -5.00209873      -2.05444231      -0.64080115
C       -5.26677504      -3.13197417      -1.68854254
C       -4.37061553      -4.36424003      -1.55957519
C       -2.89883130      -4.27926027      -1.97785443
H       -2.50091718      -5.28683245      -1.79038240
Br      -2.75773446      -4.20987298      -3.94012210
C       -1.94694603      -3.28276645      -1.25788265
O       -0.62556813      -3.86696996      -1.36237326
C       -0.26057471      -4.35059688      -0.07774881
C       -1.41390665      -4.05644150       0.84578509
O       -2.30997496      -3.21800580       0.12771658
H       -2.81330204      -0.05709592      -2.50981827
H       -3.59863553      -1.48404999      -3.06735172
H       -3.71882602      -0.38593895      -0.20634561
H       -4.87525063      -0.10803181      -1.47829735
H       -5.97382444      -1.65493330      -0.31828940
H       -4.58150271      -2.49211868       0.26925863
H       -5.27538528      -2.73624505      -2.70713718
H       -6.29317253      -3.48830072      -1.51910003
H       -4.41506217      -4.71687512      -0.52085188
H       -4.84427094      -5.16493377      -2.14583264
H       -0.05355563      -5.42247850      -0.13369006
H        0.65617914      -3.84831666       0.24454842
H       -1.94008305      -4.97267888       1.13536721
H       -1.08866660      -3.55193874       1.76067040
C       -1.85636332       1.85636332       1.85636332
H       -2.01896409       1.18061650       2.70588106
C       -3.19599534       2.02604135       1.13982559
C       -3.27255791       2.92949298      -0.08834905
C       -3.15126289       4.43965853       0.10642077
C       -3.65380080       4.99918681       1.43430414
C       -2.54705324       5.30245335       2.44492415
C       -1.84094317       4.14917943       3.16582340
H       -1.11161812       4.64193133       3.82458257
Br      -3.04203557       3.35659149       4.50910248
C       -1.05453523       3.08956392       2.34349598
O       -0.02457614       2.59591478       3.23442043
C        1.22031644       3.11729137       2.79194549
C        0.93377118       3.97284499       1.58548925
O       -0.42435523       3.74253505       1.23337390
H       -3.53413234       1.03030754       0.81577636
H       -3.95782966       2.33010249       1.86210509
H       -2.54756942       2.61036042      -0.84681927
H       -4.25671886       2.74783943      -0.54297851
H       -3.73910001       4.90508160      -0.69713446
H       -2.12693378       4.76876640      -0.09133743
H       -4.45302754       4.39503392       1.87070605
H       -4.12669853       5.96580760       1.20806715
H       -1.78537393       5.91831088       1.94910436
H       -2.98492260       5.96216200       3.20795275
H        1.68247906       3.69691703       3.59528622
H        1.88902606       2.28588108       2.55073407
H        1.06731213       5.03733873       1.80736812
H        1.58226587       3.72144276       0.74075805
C        1.85636332      -1.85636332       1.85636332
H        1.71210518      -2.82758187       1.36577461
C        1.19593431      -1.93305347       3.23287450
C        1.24815345      -0.71453348       4.15101492
C        2.58575823      -0.33070095       4.78088300
C        3.56381290      -1.46999351       5.05348534
C        4.67945445      -1.59920992       4.01576638
C        4.36264384      -2.16571229       2.62758988
H        5.32640498      -2.15299037       2.09873668
Br       4.05643394      -4.10679023       2.74450538
C        3.34079386      -1.43676161       1.71003966
O        3.73774020      -1.76177275       0.35539840
C        4.31225071      -0.59771920      -0.22104950
C        4.27174008       0.47902607       0.83184905
O        3.47821199      -0.02220870       1.89984349
H        0.13076928      -2.16555639       3.08389056
H        1.57402945      -2.80752463       3.76848317
H        0.82764307       0.16469332       3.64816083
H        0.55742021      -0.92417013       4.97998945
H        2.35106291       0.14663640       5.74262064
H        3.06595679       0.46375568       4.20216164
H        3.06067975      -2.42291373       5.23517402
H        4.06383528      -1.23299883       6.00373917
H        5.14908108      -0.61505193       3.88865616
H        5.46282034      -2.22521396       4.46700305
H        5.33625504      -0.81164340      -0.53817424
H        3.73736798      -0.31929587      -1.10907476
H        5.27381383       0.70753407       1.21111496
H        3.83591658       1.40810305       0.45212142
C       -0.00445707       0.01189536      -1.78238275
H       -0.66409135       0.67374010      -2.43557963
H        0.65740317      -0.63156657      -2.45157240
C       -0.90989263      -0.90692880      -0.91072765
C        0.90977584       0.90977584      -0.90977584
C       -0.00465871       1.77757030       0.00794375
H       -0.66225468       2.44313916      -0.64384735
H        0.64322798       2.43503045       0.67728295
C       -1.78241447       0.00034974      -0.00472694
H       -2.45427497      -0.65498947       0.64260836
H       -2.43311707       0.67328779      -0.65473579
C       -0.91132561       0.90220522       0.91563759
C       -0.01476271      -0.02253852       1.78660255
H       -0.67934791      -0.69751639       2.42135241
H        0.63392994       0.61504881       2.47327442
C        0.01484550      -1.77751727      -0.01636693
H        0.67870853      -2.42144646      -0.68295456
H       -0.62264859      -2.45592969       0.64226336
C        1.78714474       0.01002794       0.00389507
H        2.44202412       0.67113390       0.66197326
H        2.45385902      -0.65136977      -0.64189061
C        0.91606151      -0.90478549       0.90901405
