146
Properties=species:S:1:pos:R:3 pbc="F F F"
C        1.85636332       1.85636332      -1.85636332
H        2.69805522       2.03302459      -1.17438186
C        1.12916069       3.18768490      -2.04501668
C       -0.09124171       3.24456797      -2.96037558
C        0.11861695       3.11122439      -4.46750086
C        1.44695813       3.62088607      -5.01944754
C        2.47046204       2.52081218      -5.30315653
C        3.18709686       1.83202857      -4.13682057
H        3.85706068       1.10434556      -4.61672578
C        2.36224118       1.04779590      -3.07755804
O        3.25797123       0.03071071      -2.56622940
C        2.83179278      -1.22296185      -3.08008948
C        1.63073549      -0.95547302      -3.94930059
O        1.26404852       0.40138973      -3.73482594
H        0.79280927       3.53193170      -1.05547526
H        1.84720222       3.95335514      -2.34947989
H       -0.84594877       2.51554348      -2.64151587
H       -0.55655023       4.22610059      -2.79202943
H       -0.68595411       3.68729382      -4.94570744
H       -0.06667176       2.08212891      -4.78890561
H        1.87038838       4.42963433      -4.41874479
H        1.22535504       4.08277379      -5.99244446
H        1.98738271       1.74895020      -5.91645626
H        3.23551835       2.95965769      -5.95986131
H        3.64467819      -1.68296310      -3.64800910
H        2.58903756      -1.88621703      -2.24476857
H        1.86368410      -1.09671902      -5.01042964
H        0.78970010      -1.60943121      -3.69966606
C        4.15618487       2.72497963      -3.55621155
C        4.96779608       3.47282614      -3.06995149
Br       6.28010276       4.68203070      -2.28371011
C       -1.85636332      -1.85636332      -1.85636332
H       -1.10735445      -2.56445219      -2.23365502
C       -2.32043970      -1.00399021      -3.03743237
C       -3.37867029       0.07188657      -2.80691813
C       -4.81395309      -0.36437372      -2.51901538
C       -5.26373223      -1.68407199      -3.13948753
C       -5.25964908      -2.86576148      -2.16902018
C       -3.92775897      -3.48957601      -1.73861103
H       -4.21294475      -4.30572833      -1.05945895
C       -2.87844564      -2.62646094      -0.98268855
O       -2.12113035      -3.55968387      -0.17409712
C       -2.50088599      -3.36925997       1.18122555
C       -3.54125103      -2.27975278       1.19644075
O       -3.56836941      -1.72114229      -0.11075248
H       -1.43905168      -0.49074152      -3.45042304
H       -2.63904851      -1.65750685      -3.85348188
H       -3.05565875       0.76799331      -2.02344514
H       -3.41010560       0.67432371      -3.72579790
H       -5.46493216       0.42938555      -2.91150054
H       -5.00668867      -0.35543327      -1.44224081
H       -4.73595864      -1.91460052      -4.06820834
H       -6.31225667      -1.54713883      -3.44117778
H       -5.81241195      -2.57386676      -1.26651046
H       -5.87205043      -3.65586730      -2.62711962
H       -2.89275268      -4.30509645       1.58812494
H       -1.61655316      -3.09459636       1.76356042
H       -4.53453102      -2.67644882       1.43358512
H       -3.30756140      -1.49937523       1.92700169
C       -3.36406389      -4.24842463      -2.82488753
C       -2.89196927      -4.88396035      -3.73464410
Br      -2.12863219      -5.91156785      -5.20564353
C       -1.85636332       1.85636332       1.85636332
H       -2.85032202       1.51040974       1.54472990
C       -1.69623106       3.29644806       1.36918316
C       -0.39941008       4.04316367       1.67112810
C       -0.11855845       4.46737177       3.11141197
C       -1.33398645       4.77013754       3.98316776
C       -1.71648696       3.63925710       4.93868668
C       -2.38959816       2.37687164       4.38947621
H       -2.55657629       1.74676987       5.27478586
C       -1.64491729       1.49454176       3.34813608
O       -2.16563787       0.15562870       3.53364477
C       -1.15407235      -0.62236455       4.15721261
C        0.02957199       0.28527407       4.36886098
O       -0.24646214       1.48917958       3.66462246
H       -1.80856943       3.29709146       0.27455535
H       -2.54618321       3.89201639       1.71183765
H        0.46418494       3.48400607       1.29128945
H       -0.42741021       4.96346886       1.07070071
H        0.48833830       5.38181314       3.05357231
H        0.54019287       3.74392212       3.60063351
H       -2.19022119       5.12456339       3.40398292
H       -1.05735728       5.62170095       4.62151506
H       -0.81919154       3.33844980       5.49514783
H       -2.38163064       4.07547108       5.69793563
H       -1.52850830      -1.02203104       5.10324693
H       -0.90626832      -1.46882736       3.51014814
H        0.17147217       0.51917329       5.42969360
H        0.95791730      -0.15703914       3.99489138
C       -3.75187469       2.66396524       4.02153612
C       -4.89278129       2.90440614       3.71338629
Br      -6.73753076       3.29317873       3.21513408
C        1.85636332      -1.85636332       1.85636332
H        1.17295912      -2.03629642       2.69620613
C        3.00221288      -0.98645325       2.37319614
C        4.11852675      -0.58120699       1.41396810
C        5.10255781      -1.65080543       0.94397894
C        5.37715403      -2.79828057       1.91185714
C        4.62202253      -4.08719294       1.58521527
C        3.11748386      -4.17616266       1.86229949
H        2.83925031      -5.19194566       1.54693606
C        2.14040804      -3.20292799       1.14425910
O        0.87903449      -3.91069564       1.06518121
C        0.68014887      -4.29610021      -0.28732867
C        1.87700186      -3.81012210      -1.06256091
O        2.61804727      -2.96960777      -0.18739086
H        2.56881359      -0.05175885       2.75964379
H        3.43782047      -1.45053520       3.26168157
H        3.70520599      -0.06941136       0.53649323
H        4.70988041       0.18431630       1.93601567
H        6.05515154      -1.13594285       0.75595277
H        4.81045262      -2.03257797      -0.03866784
H        5.25535138      -2.50571853       2.95769760
H        6.44471594      -3.04270040       1.81315695
H        4.79396556      -4.33030400       0.52851961
H        5.11782060      -4.89607017       2.14114658
H        0.57562319      -5.38249862      -0.34839761
H       -0.24904589      -3.84872352      -0.65208854
H        2.51476952      -4.64246594      -1.37984074
H        1.58695772      -3.24909251      -1.95611529
C        2.88149180      -4.27660977       3.27927448
C        2.68384844      -4.36073423       4.46599104
Br       2.36427586      -4.49675637       6.38481133
C       -0.00445707       0.01189536      -1.78238275
H       -0.66409135       0.67374010      -2.43557963
H        0.65740317      -0.63156657      -2.45157240
C       -0.90989263      -0.90692880      -0.91072765
C        0.90977584       0.90977584      -0.90977584
C       -0.00465871       1.77757030       0.00794375
H       -0.66225468       2.44313916      -0.64384735
H        0.64322798       2.43503045       0.67728295
C       -1.78241447       0.00034974      -0.00472694
H       -2.45427497      -0.65498947       0.64260836
H       -2.43311707       0.67328779      -0.65473579
C       -0.91132561       0.90220522       0.91563759
C       -0.01476271      -0.02253852       1.78660255
H       -0.67934791      -0.69751639       2.42135241
H        0.63392994       0.61504881       2.47327442
C        0.01484550      -1.77751727      -0.01636693
H        0.67870853      -2.42144646      -0.68295456
H       -0.62264859      -2.45592969       0.64226336
C        1.78714474       0.01002794       0.00389507
H        2.44202412       0.67113390       0.66197326
H        2.45385902      -0.65136977      -0.64189061
C        0.91606151      -0.90478549       0.90901405
