178
Properties=species:S:1:pos:R:3 pbc="F F F"
O        7.96838866       6.53913072      -7.52032284
C        8.80952559       6.04209071      -6.77550793
C        8.62050549       6.09884894      -5.26900681
S        7.65993235       4.67372546      -4.67096701
C        6.08418719       4.89861157      -5.60546386
H        6.26032228       4.85111156      -6.68304532
C        5.30130373       6.12643818      -5.21043601
C        4.38977800       5.62656469      -4.12988951
O        3.83238277       6.40317223      -3.36598625
N        4.29572698       4.25316549      -4.22036140
C        3.43967377       3.42926111      -3.41799805
C        2.50864417       3.97933410      -2.51911103
C        1.69316873       3.17241656      -1.71175452
C        1.79036505       1.79036505      -1.79036505
C        2.69482372       1.21196013      -2.66912717
C        3.50982934       2.02510075      -3.46990356
C        5.14432275       3.78288549      -5.20628338
O        5.19093287       2.67401952      -5.72399341
N        9.96972861       5.38909367      -7.15356943
C       10.45349011       5.18703972      -8.46153160
C        9.75850662       5.54941869      -9.61734883
C       10.31887960       5.33044640     -10.88141720
C       11.57995173       4.75183610     -10.99198398
Br      12.34356945       4.47606079     -12.69782042
C       12.28203577       4.37861407      -9.84994476
C       11.71555509       4.59039882      -8.58915325
H        8.13911118       7.04249524      -4.99780244
H        9.59420609       6.09217880      -4.76826009
H        4.67510547       6.47576151      -6.03959912
H        5.90930169       6.95938920      -4.85238082
H        2.37502581       5.05145186      -2.41037876
H        0.99112150       3.64216576      -1.02720664
H        2.78672292       0.13107251      -2.74203810
H        4.21003557       1.50651976      -4.11849056
H       10.54747905       5.01667199      -6.40894508
H        8.77172511       5.99951679      -9.57550954
H        9.75980141       5.61849921     -11.76828180
H       13.26760258       3.92699889      -9.92764552
H       12.28478318       4.29410916      -7.71150014
O       -7.16508901      -8.14603982      -6.71671340
C       -6.15654010      -8.84200709      -6.62857703
C       -4.79345364      -8.25002555      -6.94488205
S       -4.04995222      -7.48290132      -5.47177128
C       -5.31711574      -6.20296148      -5.06818540
H       -6.28175705      -6.66634906      -4.84637305
C       -5.43615416      -5.10539650      -6.09662726
C       -4.47551849      -4.06310337      -5.60761033
O       -4.08005457      -3.17306640      -6.34842028
N       -4.21344458      -4.28445392      -4.27135538
C       -3.41649698      -3.43605123      -3.43438473
C       -2.91124355      -2.20551290      -3.89033285
C       -2.10569313      -1.39042546      -3.08122122
C       -1.79036505      -1.79036505      -1.79036505
C       -2.27464276      -2.99642018      -1.30484808
C       -3.07576114      -3.80801381      -2.12105871
C       -4.83905114      -5.44406965      -3.85037083
O       -5.02037721      -5.85684492      -2.71172367
N       -6.09655789     -10.17051170      -6.24532213
C       -7.17271409     -11.01703782      -5.91230953
C       -8.50163761     -10.59636615      -5.82727037
C       -9.51603688     -11.50677825      -5.50792806
C       -9.20323459     -12.84328848      -5.27724874
Br     -10.57587418     -14.07473741      -4.86683907
C       -7.88290299     -13.27657647      -5.35111514
C       -6.87093818     -12.36278746      -5.66138152
H       -4.89040015      -7.52833216      -7.76067655
H       -4.11794292      -9.03390470      -7.30279736
H       -6.43991306      -4.66493144      -6.08562160
H       -5.19520524      -5.40861445      -7.11725204
H       -3.12303613      -1.82772849      -4.88609181
H       -1.73304254      -0.44929952      -3.47815185
H       -2.03547981      -3.32720649      -0.29714722
H       -3.40191618      -4.74796179      -1.68516792
H       -5.17625635     -10.59277016      -6.20406961
H       -8.78773383      -9.56303981      -5.99597780
H      -10.54376636     -11.15762527      -5.44519079
H       -7.63039866     -14.31865228      -5.17319607
H       -5.84756537     -12.72566448      -5.71716263
O       -6.93343120       8.18658560       6.90782542
C       -5.83120599       8.69282677       7.10309146
C       -4.65526966       7.82166147       7.51143012
S       -3.78279155       7.16690974       6.05492353
C       -5.13626309       6.21569815       5.23630138
H       -5.96202516       6.87507666       4.95737734
C       -5.60681872       5.01375811       6.01760109
C       -4.74439204       3.90160367       5.50023648
O       -4.63113923       2.85177991       6.11862211
N       -4.21309798       4.27355453       4.28260136
C       -3.41675419       3.43275272       3.43742602
C       -3.19721537       2.07583740       3.73403653
C       -2.39247779       1.26156831       2.92329373
C       -1.79036505       1.79036505       1.79036505
C       -1.98790347       3.12421316       1.46379440
C       -2.79016093       3.93319629       2.28147644
C       -4.56675436       5.57809800       3.98863927
O       -4.47276696       6.18631889       2.92985995
N       -5.49991145      10.03105266       6.98142761
C       -6.35513116      11.09988541       6.64704486
C       -7.69493845      10.94578858       6.28454711
C       -8.48287406      12.06336155       5.98450759
C       -7.93250285      13.34006055       6.05120841
Br      -9.00272084      14.84852043       5.66620938
C       -6.59707952      13.50968422       6.40383087
C       -5.81037623      12.39066291       6.69406803
H       -5.00817919       7.01336683       8.15786285
H       -3.94414715       8.40553410       8.10496373
H       -6.64725903       4.77000831       5.77319875
H       -5.51183115       5.10825590       7.10098467
H       -3.64173779       1.59492203       4.60019661
H       -2.24671235       0.21890923       3.19487232
H       -1.52181933       3.55633066       0.58168354
H       -2.88386257       4.97222583       1.97895749
H       -4.53382842      10.28028438       7.15898333
H       -8.16169182       9.96822371       6.21683591
H       -9.52321817      11.92058430       5.70277996
H       -6.15994241      14.50326286       6.45904173
H       -4.77089885      12.54862778       6.97086586
O        7.74949648      -6.49869266       7.77965308
C        8.58401271      -5.72297711       7.32013440
C        8.66973715      -5.49878457       5.81983952
S        7.55161714      -4.16543008       5.28757759
C        5.92081636      -4.84296711       5.82447915
H        5.89751417      -4.98971980       6.90724519
C        5.48710453      -6.07761957       5.07345382
C        4.68930299      -5.52785527       3.92907393
O        4.44242732      -6.21323246       2.94588147
N        4.29975398      -4.23915654       4.23034335
C        3.44120944      -3.42516543       3.42055807
C        2.81049227      -3.92791941       2.26867762
C        1.99540323      -3.12236629       1.45957030
C        1.79036505      -1.79036505       1.79036505
C        2.39305174      -1.26067409       2.92218519
C        3.21009164      -2.07094499       3.72379703
C        4.85271575      -3.84527307       5.43550279
O        4.58067671      -2.87575960       6.13250948
N        9.50285850      -4.97455781       8.03497540
C        9.70489800      -4.96764571       9.42951773
C        8.91352976      -5.67360870      10.33813568
C        9.19336002      -5.62830682      11.70907636
C       10.27023814      -4.87918932      12.17434435
Br      10.65907100      -4.83580142      14.02257824
C       11.06386710      -4.16441551      11.28231199
C       10.77611060      -4.20450666       9.91448991
H        8.44680888      -6.43391247       5.29868751
H        9.69172865      -5.22342481       5.53949152
H        4.81485931      -6.69186883       5.68373796
H        6.30579653      -6.70293165       4.71234353
H        2.92157001      -4.96125134       1.95403508
H        1.53230107      -3.55304103       0.57515179
H        2.24605454      -0.21858961       3.19518938
H        3.66745260      -1.58610614       4.58148715
H       10.10927849      -4.36374217       7.50007546
H        8.06273318      -6.26644863      10.01756963
H        8.56332969      -6.18401820      12.39923453
H       11.90708272      -3.57772400      11.63744028
H       11.41265440      -3.64103450       9.23670359
C       -0.00445707       0.01189536      -1.78238275
H       -0.66409135       0.67374010      -2.43557963
H        0.65740317      -0.63156657      -2.45157240
C       -0.90989263      -0.90692880      -0.91072765
C        0.90977584       0.90977584      -0.90977584
C       -0.00465871       1.77757030       0.00794375
H       -0.66225468       2.44313916      -0.64384735
H        0.64322798       2.43503045       0.67728295
C       -1.78241447       0.00034974      -0.00472694
H       -2.45427497      -0.65498947       0.64260836
H       -2.43311707       0.67328779      -0.65473579
C       -0.91132561       0.90220522       0.91563759
C       -0.01476271      -0.02253852       1.78660255
H       -0.67934791      -0.69751639       2.42135241
H        0.63392994       0.61504881       2.47327442
C        0.01484550      -1.77751727      -0.01636693
H        0.67870853      -2.42144646      -0.68295456
H       -0.62264859      -2.45592969       0.64226336
C        1.78714474       0.01002794       0.00389507
H        2.44202412       0.67113390       0.66197326
H        2.45385902      -0.65136977      -0.64189061
C        0.91606151      -0.90478549       0.90901405
