186
Properties=species:S:1:pos:R:3 pbc="F F F"
O        7.96838866       6.53913072      -7.52032284
C        8.80952559       6.04209071      -6.77550793
C        8.62050549       6.09884894      -5.26900681
S        7.65993235       4.67372546      -4.67096701
C        6.08418719       4.89861157      -5.60546386
H        6.26032228       4.85111156      -6.68304532
C        5.30130373       6.12643818      -5.21043601
C        4.38977800       5.62656469      -4.12988951
O        3.83238277       6.40317223      -3.36598625
N        4.29572698       4.25316549      -4.22036140
C        3.43967377       3.42926111      -3.41799805
C        2.50864417       3.97933410      -2.51911103
C        1.69316873       3.17241656      -1.71175452
C        1.79036505       1.79036505      -1.79036505
C        2.69482372       1.21196013      -2.66912717
C        3.50982934       2.02510075      -3.46990356
C        5.14432275       3.78288549      -5.20628338
O        5.19093287       2.67401952      -5.72399341
N        9.96972861       5.38909367      -7.15356943
C       10.45349011       5.18703972      -8.46153160
C        9.75850662       5.54941869      -9.61734883
C       10.31887960       5.33044640     -10.88141720
C       11.57995173       4.75183610     -10.99198398
C       12.28203577       4.37861407      -9.84994476
C       11.71555509       4.59039882      -8.58915325
H        8.13911118       7.04249524      -4.99780244
H        9.59420609       6.09217880      -4.76826009
H        4.67510547       6.47576151      -6.03959912
H        5.90930169       6.95938920      -4.85238082
H        2.37502581       5.05145186      -2.41037876
H        0.99112150       3.64216576      -1.02720664
H        2.78672292       0.13107251      -2.74203810
H        4.21003557       1.50651976      -4.11849056
H       10.54747905       5.01667199      -6.40894508
H        8.77172511       5.99951679      -9.57550954
H        9.75980141       5.61849921     -11.76828180
H       13.26760258       3.92699889      -9.92764552
H       12.28478318       4.29410916      -7.71150014
C       12.16200490       4.54163158     -12.29222556
C       12.64947443       4.36558529     -13.38117788
Br      13.43767144       4.08093334     -15.14192169
O       -7.09096797      -8.16620897      -6.77066528
C       -6.04496302      -8.81055524      -6.77160596
C       -4.73281015      -8.13081362      -7.12473747
S       -3.95130168      -7.40096089      -5.65236224
C       -5.25856348      -6.21322124      -5.11647789
H       -6.18500225      -6.73848983      -4.87098708
C       -5.48851730      -5.07262453      -6.07703609
C       -4.55739218      -4.00650551      -5.58233451
O       -4.24821636      -3.05988320      -6.29344169
N       -4.21293577      -4.28130560      -4.27501251
C       -3.41646116      -3.43508530      -3.43538648
C       -2.99985204      -2.15752353      -3.84971373
C       -2.19459657      -1.34264391      -3.04009934
C       -1.79036505      -1.79036505      -1.79036505
C       -2.18571548      -3.04389146      -1.34630407
C       -2.98711078      -3.85468668      -2.16303620
C       -4.75506303      -5.49282489      -3.88560370
O       -4.85364643      -5.97227640      -2.76302296
N       -5.89680085     -10.15172936      -6.46386150
C       -6.90893354     -11.07074741      -6.12238049
C       -8.25108685     -10.72698932      -5.94719797
C       -9.19910913     -11.70570163      -5.62593244
C       -8.80661337     -13.03349133      -5.48366712
C       -7.47178454     -13.39086258      -5.64794749
C       -6.52587446     -12.40937630      -5.95985640
H       -4.91013673      -7.37471222      -7.89455992
H       -4.03841738      -8.85798228      -7.55824531
H       -6.51138779      -4.68787663      -5.99120168
H       -5.28761976      -5.31001277      -7.12343919
H       -3.28384326      -1.74138087      -4.81163230
H       -1.89229543      -0.36383529      -3.40436318
H       -1.87618400      -3.41230319      -0.37134633
H       -3.24101038      -4.83180852      -1.76222700
H       -4.95527829     -10.52547089      -6.49234694
H       -8.59815842      -9.70327529      -6.04531772
H      -10.23844761     -11.41594119      -5.49219363
H       -7.15727128     -14.42557712      -5.53939860
H       -5.48980697     -12.71341193      -6.08717358
C       -9.78532760     -14.04174312      -5.16879132
C      -10.60500077     -14.88615400      -4.90508284
Br     -11.93034296     -16.25149497      -4.47868853
O       -6.90182818       8.18643361       6.93958043
C       -5.79273373       8.65961819       7.17477230
C       -4.64939453       7.74912850       7.58983821
S       -3.75674645       7.10866671       6.13921165
C       -5.11213338       6.21255134       5.26357790
H       -5.91402664       6.89932115       4.98113137
C       -5.63187207       5.00398253       6.00232333
C       -4.78435346       3.88346095       5.47841779
O       -4.71276555       2.81615109       6.07262461
N       -4.21336496       4.27179986       4.28408905
C       -3.41688257       3.43223209       3.43781828
C       -3.23851104       2.06327923       3.70529903
C       -2.43385680       1.24916444       2.89431858
C       -1.79036505       1.79036505       1.79036505
C       -1.94656092       3.13644798       1.49290212
C       -2.74904291       3.94504589       2.31074485
C       -4.52713081       5.59174506       4.01461575
O       -4.39136242       6.22335795       2.97422542
N       -5.42550929       9.99162080       7.09526162
C       -6.24532310      11.08970452       6.76703381
C       -7.57891697      10.97859198       6.36776519
C       -8.33115468      12.12283295       6.07675557
C       -7.75128127      13.38314574       6.18934481
C       -6.42143497      13.51013036       6.57902927
C       -5.67021632      12.36471530       6.86017555
H       -5.03842141       6.93431039       8.20667706
H       -3.93932738       8.29996380       8.21535379
H       -6.67149194       4.79277388       5.72620028
H       -5.56204889       5.06925444       7.08976838
H       -3.71657189       1.57252820       4.54775634
H       -2.32081596       0.19675790       3.14292004
H       -1.44775324       3.57827959       0.63380070
H       -2.80935857       4.99327080       2.03241652
H       -4.45837170      10.21184240       7.30288202
H       -8.06781029      10.01513322       6.26380793
H       -9.36723890      12.01345319       5.76589033
H       -5.96142720      14.49065175       6.67016805
H       -4.63449826      12.48941689       7.16647733
C       -8.53069014      14.56013058       5.90504132
C       -9.18344507      15.54585539       5.66693714
Br     -10.23889459      17.13968904       5.28194283
O        7.86969795      -6.50809332       7.65005095
C        8.72116639      -5.86924444       7.03671339
C        8.67193940      -5.79654296       5.51987889
S        7.63453251      -4.41045148       4.95964082
C        6.01175122      -4.86251826       5.71399314
H        6.08687545      -4.90407344       6.80353027
C        5.38906525      -6.11056931       5.13854336
C        4.53221662      -5.59082319       4.02319238
O        4.12195561      -6.33601425       3.14357139
N        4.29825069      -4.24624605       4.22475713
C        3.44057634      -3.42725533       3.41910126
C        2.64988086      -3.96771692       2.38949153
C        1.83451757      -3.16151068       1.58131157
C        1.79036505      -1.79036505       1.79036505
C        2.55375165      -1.22220974       2.79994963
C        3.36983023      -2.03399096       3.60101247
C        5.00726757      -3.80056544       5.32565861
O        4.90069638      -2.74715867       5.94109074
N        9.77498983      -5.15621481       7.58118708
C       10.11986894      -5.03971817       8.94247432
C        9.36408377      -5.57191797       9.98927239
C        9.78714706      -5.42765797      11.31593817
C       10.97172309      -4.75363602      11.59841271
C       11.73228623      -4.21139269      10.56691568
C       11.30218434      -4.34938155       9.24354128
H        8.30977884      -6.74826952       5.12136050
H        9.68073680      -5.65576959       5.11813858
H        4.72898243      -6.59219263       5.86929104
H        6.10389164      -6.84820886       4.76897122
H        2.63061849      -5.03188645       2.17435149
H        1.24419626      -3.62288908       0.79340856
H        2.53396034      -0.14955749       2.97631570
H        3.95677343      -1.52088621       4.35738626
H       10.37736246      -4.66413009       6.93160357
H        8.43296778      -6.10101666       9.81276700
H        9.18260347      -5.84820286      12.11577609
H       12.65889286      -3.68436335      10.77899080
H       11.91518320      -3.92066698       8.45454230
C       11.41394197      -4.61965557      12.96226450
C       11.78430029      -4.50744695      14.10449037
Br      12.38313836      -4.32601510      15.95137300
C       -0.00445707       0.01189536      -1.78238275
H       -0.66409135       0.67374010      -2.43557963
H        0.65740317      -0.63156657      -2.45157240
C       -0.90989263      -0.90692880      -0.91072765
C        0.90977584       0.90977584      -0.90977584
C       -0.00465871       1.77757030       0.00794375
H       -0.66225468       2.44313916      -0.64384735
H        0.64322798       2.43503045       0.67728295
C       -1.78241447       0.00034974      -0.00472694
H       -2.45427497      -0.65498947       0.64260836
H       -2.43311707       0.67328779      -0.65473579
C       -0.91132561       0.90220522       0.91563759
C       -0.01476271      -0.02253852       1.78660255
H       -0.67934791      -0.69751639       2.42135241
H        0.63392994       0.61504881       2.47327442
C        0.01484550      -1.77751727      -0.01636693
H        0.67870853      -2.42144646      -0.68295456
H       -0.62264859      -2.45592969       0.64226336
C        1.78714474       0.01002794       0.00389507
H        2.44202412       0.67113390       0.66197326
H        2.45385902      -0.65136977      -0.64189061
C        0.91606151      -0.90478549       0.90901405
