157
Properties=species:S:1:pos:R:3 pbc="F F F"
C        0.00000000       0.00000000       0.00000000
O        7.05848463       5.62922670      -6.61041882
C        7.89962156       5.13218668      -5.86560390
C        7.71060147       5.18894492      -4.35910279
S        6.75002832       3.76382143      -3.76106299
C        5.17428316       3.98870755      -4.69555984
H        5.35041825       3.94120754      -5.77314130
C        4.39139971       5.21653416      -4.30053199
C        3.47987397       4.71666066      -3.21998548
O        2.92247875       5.49326820      -2.45608223
N        3.38582296       3.34326147      -3.31045738
C        2.52976975       2.51935709      -2.50809402
C        1.59874014       3.06943008      -1.60920701
C        0.78326471       2.26251254      -0.80185050
C        0.88046103       0.88046103      -0.88046103
C        1.78491969       0.30205611      -1.75922314
C        2.59992532       1.11519673      -2.55999953
C        4.23441873       2.87298147      -4.29637935
O        4.28102884       1.76411549      -4.81408939
N        9.05982459       4.47918965      -6.24366541
C        9.54358609       4.27713569      -7.55162758
C        8.84860259       4.63951466      -8.70744481
C        9.40897557       4.42054238      -9.97151318
C       10.67004771       3.84193208     -10.08207995
Br      11.43366543       3.56615676     -11.78791639
C       11.37213175       3.46871005      -8.94004073
C       10.80565107       3.68049480      -7.67924923
H        7.22920716       6.13259122      -4.08789842
H        8.68430206       5.18227478      -3.85835606
H        3.76520145       5.56585748      -5.12969510
H        4.99939767       6.04948518      -3.94247680
H        1.46512179       4.14154784      -1.50047473
H        0.08121747       2.73226174      -0.11730262
H        1.87681890      -0.77883152      -1.83213407
H        3.30013155       0.59661574      -3.20858654
H        9.63757503       4.10676796      -5.49904106
H        7.86182108       5.08961277      -8.66560552
H        8.84989739       4.70859519     -10.85837778
H       12.35769856       3.01709487      -9.01774150
H       11.37487916       3.38420513      -6.80159612
O       -6.27780317      -7.22876126      -5.79156572
C       -5.28195263      -7.93894097      -5.67651856
C       -3.90484032      -7.37347391      -5.98033494
S       -3.17238417      -6.59475297      -4.50777561
C       -4.42519548      -5.28887828      -4.14447679
H       -5.40043775      -5.73352312      -3.93080622
C       -4.51065157      -4.20607799      -5.19173630
C       -3.54133486      -3.17130509      -4.70388016
O       -3.12021936      -2.29946084      -5.45214898
N       -3.30376327      -3.37545314      -3.36032539
C       -2.50662391      -2.52642679      -2.52417016
C       -1.97479050      -1.31135454      -2.99123219
C       -1.16914416      -0.49621285      -2.18227073
C       -0.88046103      -0.88046103      -0.88046103
C       -1.39139745      -2.07091430      -0.38388720
C       -2.19244616      -2.88274533      -1.19993009
C       -3.95424470      -4.51829251      -2.93124233
O       -4.15991357      -4.91001931      -1.78930084
N       -5.24911114      -9.26195902      -5.27160948
C       -6.34367406     -10.08613304      -4.94254226
C       -7.66690813      -9.64341150      -4.88524243
C       -8.70053145     -10.53263969      -4.56785998
C       -8.41267180     -11.87004522      -4.31134272
Br      -9.81097705     -13.07317440      -3.90358713
C       -7.09840304     -12.32506777      -4.35741172
C       -6.06730195     -11.43228107      -4.66581208
H       -3.97751595      -6.66341582      -6.80876502
H       -3.23636079      -8.17342372      -6.31514839
H       -5.50732833      -3.74983526      -5.20359044
H       -4.25860821      -4.52922259      -6.20352884
H       -2.16493554      -0.94618394      -3.99602488
H       -0.77540677       0.43253331      -2.58790836
H       -1.17332841      -2.38933704       0.63254400
H       -2.54029071      -3.81042206      -0.75462105
H       -4.33639945      -9.69786225      -5.20912235
H       -7.93385981      -8.60854690      -5.07463266
H       -9.72343470     -10.16648842      -4.52694724
H       -6.86531822     -13.36800733      -4.15920938
H       -5.04908142     -11.81197414      -4.69962485
O       -6.59561534       7.06852741       5.63398739
C       -5.83706498       7.90694671       5.15340046
C       -4.33325855       7.70170911       5.22368151
S       -3.73035288       6.74968052       3.79487935
C       -4.68329173       5.18150133       3.99375748
H       -5.75845307       5.36930319       3.93701082
C       -4.30911564       4.38196975       5.21738046
C       -3.23286466       3.46445426       4.71920120
O       -2.48284504       2.89119422       5.49778992
N       -3.31002318       3.38547754       3.34404108
C       -2.50798814       2.52965160       2.51958112
C       -1.62448776       1.58372420       3.06916526
C       -0.81721931       0.76824512       2.26216331
C       -0.88046103       0.88046103       0.88046103
C       -1.74381751       1.79990258       0.30247885
C       -2.54457605       2.61477953       1.11576601
C       -4.28222609       4.24906369       2.87248976
O       -4.78787928       4.31245200       1.75890244
N       -6.19636919       9.07766964       4.50864082
C       -7.49711700       9.57704836       4.29818401
C       -8.66372344       8.89042245       4.64141618
C       -9.91961845       9.46612235       4.41529032
C      -10.01119212      10.73415909       3.84870853
Br     -11.70612758      11.51825657       3.56335444
C       -8.85817653      11.42813945       3.49456654
C       -7.60554616      10.84644047       3.71340847
H       -4.07683925       7.20784364       6.16501390
H       -3.82248240       8.67017101       5.23227949
H       -5.14825981       3.76086174       5.55163247
H       -3.95350117       4.97761605       6.06024242
H       -1.52828159       1.43796454       4.14089823
H       -0.14484565       0.05432886       2.73160731
H       -1.80454410       1.90366552      -0.77808816
H       -3.18050420       3.32698350       0.59784613
H       -5.44201297       9.65145099       4.14992009
H       -8.63671371       7.89868280       5.08164285
H      -10.81513102       8.91335693       4.68838240
H       -8.92104063      12.41905277       3.05244153
H       -6.71905412      11.40953514       3.43209115
O        6.86067809      -5.58863684       6.84881522
C        7.70004080      -4.83465713       6.36271422
C        7.76433115      -4.63664678       4.85767125
S        6.65955388      -3.29371166       4.32164720
C        5.02703591      -3.93494504       4.89656960
H        5.01943974      -4.06345131       5.98187604
C        4.56056374      -5.17435929       4.17354282
C        3.75288278      -4.63022940       3.03340794
O        3.47834920      -5.32746548       2.06601450
N        3.38968583      -3.33041131       3.31944466
C        2.53122392      -2.51560562       2.51039132
C        1.87313737      -3.02662289       1.37761696
C        1.05799149      -2.22096872       0.56866753
C        0.88046103      -0.88046103       0.88046103
C        1.51063244      -0.34237534       1.99319117
C        2.32752561      -1.15290196       2.79469402
C        3.96913834      -2.92605709       4.50858412
O        3.72478757      -1.94079068       5.19365547
N        8.64290737      -4.09005367       7.04971861
C        8.86833520      -4.06357728       8.44043688
C        8.08076959      -4.74115588       9.37363660
C        8.38420359      -4.67799005      10.73883748
C        9.48089519      -3.93943897      11.17372559
Br       9.90125523      -3.87215664      13.01432672
C       10.27114333      -3.25281690      10.25692230
C        9.95992319      -3.31058951       8.89488240
H        7.51735867      -5.57636288       4.35597524
H        8.78588197      -4.38307335       4.55597759
H        3.88860643      -5.76715117       4.80499643
H        5.36269999      -5.81913745       3.80952220
H        1.96191790      -4.06670581       1.07852065
H        0.57313437      -2.65832983      -0.30068238
H        1.38538977       0.70637352       2.25110520
H        2.80708720      -0.66173540       3.63651122
H        9.25026223      -3.49835283       6.49476899
H        7.21508955      -5.32487372       9.07707610
H        7.75674901      -5.21165214      11.44846921
H       11.12972155      -2.67455025      10.58826312
H       10.59422412      -2.76907418       8.19738211
