198
Properties=species:S:1:pos:R:3 pbc="F F F"
C        1.79230188       1.79230188      -1.79230188
C        3.19396786       1.65178002      -1.72632220
C        4.02636288       2.44309234      -2.52566785
C        3.41505556       3.34887971      -3.37127705
C        2.04203426       3.48922768      -3.42171510
C        1.19469973       2.72202413      -2.64577007
C        1.73953930       4.53650563      -4.39325655
O        0.60339655       4.90508941      -4.62818776
N        2.94085745       4.93383953      -4.93402116
C        3.99346069       4.31284144      -4.30331909
O        5.19087222       4.52954029      -4.35320147
C        3.07712494       5.94211941      -5.92403074
C        2.27674649       7.09456075      -5.81924209
C        2.33206704       8.11712153      -6.77582549
C        3.18308244       7.96394493      -7.87748970
C        4.00415774       6.83294190      -8.01119842
C        3.94585772       5.81259520      -7.03310280
Cl       4.66683004       4.26183111      -7.39297871
N        4.83333165       6.73553721      -9.15367572
C        6.18783501       6.49945710      -9.10596735
O        6.94356582       6.41179912      -8.15661574
C        6.65169199       6.48238700     -10.49226241
C        7.91362027       6.26360975     -11.01021346
C        8.05046713       6.30870838     -12.40227917
C        6.93493278       6.57028984     -13.22464739
C        5.67074759       6.80686265     -12.68065594
C        5.56768022       6.76227222     -11.30358603
C        4.40991198       6.97644334     -10.43878554
O        3.31324259       7.29037013     -10.86320921
C        1.51161311       9.37682715      -6.62657242
F        2.29293406      10.49207163      -6.59182021
F        0.64070168       9.56017344      -7.65416979
F        0.76737203       9.41041669      -5.48760143
H        3.64008873       0.92508283      -1.04952834
H        5.10776188       2.35309483      -2.48542133
H        0.11821371       2.84462904      -2.70733177
H        1.60646184       7.21516518      -4.96671909
H        3.21705839       8.75537217      -8.62781802
H        8.76109167       6.06516385     -10.36103664
H        9.02962215       6.13755853     -12.84650158
H        4.80277161       7.01237996     -13.29882561
C        7.10378266       6.59334435     -14.65452787
C        7.24519444       6.61265250     -15.85205278
Br       7.47384533       6.64387215     -17.78834927
C       -1.79230188      -1.79230188      -1.79230188
C       -1.51804345      -3.17274846      -1.88127817
C       -2.31171211      -4.00551735      -2.67789361
C       -3.36193146      -3.41712642      -3.35615443
C       -3.61711262      -2.06232520      -3.27353921
C       -2.85209313      -1.21533721      -2.49506359
C       -4.77116958      -1.77677240      -4.12135950
O       -5.21061574      -0.65187308      -4.27418490
N       -5.20112912      -2.98326712      -4.62432190
C       -4.34632698      -3.99877369      -4.26452055
O       -4.26831557      -5.14942483      -4.65587358
C       -6.30839973      -3.13524105      -5.49963431
C       -6.49207555      -2.18115279      -6.51732099
C       -7.57969752      -2.24679631      -7.39852022
C       -8.52008906      -3.27132340      -7.23310461
C       -8.36527359      -4.24728613      -6.23573835
C       -7.25734001      -4.17508908      -5.35912663
Cl      -7.27211328      -5.14445838      -3.90506820
N       -9.35719855      -5.24929923      -6.11604682
C       -9.09230451      -6.59923080      -6.10172414
O       -8.04824092      -7.20321290      -6.26052685
C      -10.38429968      -7.27079146      -5.97125026
C      -10.68813061      -8.61563970      -5.88367318
C      -12.03925591      -8.95970811      -5.76249064
C      -13.03426841      -7.96054407      -5.73505752
C      -12.70801684      -6.60705799      -5.84319135
C      -11.36712002      -6.29831134      -5.96810711
C      -10.70914007      -5.00216269      -6.11383810
O      -11.32027084      -3.95264936      -6.19390173
C       -7.73920235      -1.25177832      -8.52403201
F       -7.77365972      -1.86161550      -9.74155067
F       -8.89014458      -0.53439112      -8.43050920
F       -6.72941596      -0.34198934      -8.59398485
H       -0.68300002      -3.60167851      -1.33002137
H       -2.11340979      -5.06973210      -2.76313615
H       -3.07566255      -0.15487078      -2.43964119
H       -5.76624631      -1.37656820      -6.64553160
H       -9.37280968      -3.31502451      -7.91241439
H       -9.90835841      -9.37087459      -5.90805915
H      -12.31622122     -10.00996362      -5.68749742
H      -13.46128754      -5.82599165      -5.82669798
C      -14.41469185      -8.34476177      -5.59220127
C      -15.57079647      -8.66654408      -5.47255917
Br     -17.44011987      -9.18683887      -5.27910800
C       -1.79230188       1.79230188       1.79230188
C       -2.82056328       1.19843612       2.55307068
C       -3.64107342       1.98097999       3.37306966
C       -3.39288131       3.33992907       3.40240194
C       -2.39165702       3.91598058       2.64533944
C       -1.56528416       3.16966927       1.82754050
C       -2.41934044       5.35429876       2.89566228
O       -1.66705120       6.13188782       2.33773471
N       -3.39248818       5.57249640       3.84373355
C       -4.06889605       4.40996287       4.13076230
O       -5.09748762       4.22118265       4.75494370
C       -3.73224219       6.85017706       4.36085584
C       -3.77727060       7.94054922       3.47272952
C       -4.07294556       9.23692425       3.91514423
C       -4.29431635       9.44845308       5.28174763
C       -4.26775566       8.38384964       6.19669276
C       -3.97788026       7.07837341       5.73530204
Cl      -3.57181199       5.84493988       6.90488799
N       -4.48966809       8.66783483       7.56504166
C       -5.42332716       8.02517435       8.34475795
O       -6.26400182       7.19590877       8.05207009
C       -5.32854450       8.62171451       9.67608238
C       -6.01883609       8.33153661      10.83707079
C       -5.70331681       9.08408742      11.97405044
C       -4.72021384      10.09367531      11.91598086
C       -4.04625519      10.38409351      10.72791747
C       -4.38337150       9.62931601       9.62085097
C       -3.88224501       9.69281705       8.25007881
O       -3.06986922      10.51914965       7.87780306
C       -4.17537308      10.39235865       2.94728095
F       -5.40083681      10.98549586       2.99049323
F       -3.27289773      11.37533376       3.20681342
F       -3.98311128      10.03372672       1.64855215
H       -2.98488780       0.12326371       2.50654839
H       -4.44104707       1.54287940       3.96235158
H       -0.78011821       3.64307332       1.24698299
H       -3.59802582       7.78221459       2.40810570
H       -4.51312908      10.46008715       5.62703236
H       -6.77367662       7.55140653      10.86220899
H       -6.22459990       8.88101135      12.90807101
H       -3.28936038      11.15929982      10.66531698
C       -4.40526938      10.83961052      13.10677499
C       -4.14150340      11.46433126      14.10406507
Br      -3.71501612      12.47445185      15.71659878
C        1.79230188      -1.79230188       1.79230188
C        1.24599854      -2.36810792       2.95796362
C        2.02905860      -3.18370767       3.78235680
C        3.33958636      -3.39614143       3.39948452
C        3.87104517      -2.81912189       2.26280998
C        3.12286699      -2.01050841       1.42911853
C        5.26903816      -3.23041381       2.16984950
O        6.00778383      -2.84763682       1.28125307
N        5.49904844      -4.09118937       3.21848032
C        4.39937850      -4.16958379       4.04065892
O        4.26744089      -4.65743883       5.14873426
C        6.74687079      -4.71498167       3.48142263
C        7.92138940      -3.95953558       3.30962436
C        9.19032085      -4.51627790       3.51841531
C        9.28305054      -5.86776993       3.87369659
C        8.13334444      -6.65078014       4.06417348
C        6.85806621      -6.07363500       3.85985451
Cl       5.47111122      -7.12799703       3.72253161
N        8.29752829      -8.01234772       4.41266858
C        7.69008064      -8.61103153       5.49214729
O        6.99887129      -8.13839458       6.37471481
C        8.13010341     -10.00517909       5.49105889
C        7.80300866     -11.04665600       6.33777882
C        8.39170611     -12.28985321       6.07989535
C        9.28093348     -12.45172466       4.99721186
C        9.61297224     -11.38183492       4.16345902
C        9.02147517     -10.16568501       4.44637830
C        9.16839165      -8.87103789       3.78571132
O        9.92903629      -8.68354350       2.85424215
C       10.44404821      -3.68365681       3.38730766
F       11.16766159      -3.66791716       4.54124715
F       11.28336385      -4.14779596       2.42388510
F       10.20233945      -2.37911952       3.08393117
H        0.20783930      -2.18033090       3.22652971
H        1.62793771      -3.63189805       4.68644229
H        3.55967301      -1.57349490       0.53700662
H        7.85473610      -2.90813779       3.02547222
H       10.27188126      -6.30350801       4.02485932
H        7.11737304     -10.90258272       7.16733640
H        8.15460761     -13.13478735       6.72428730
H       10.29739581     -11.48854485       3.32803651
C        9.85757471     -13.74725259       4.74682759
C       10.34051173     -14.83225723       4.53713076
Br      11.12138006     -16.58661797       4.19806873
C       -0.00445707       0.01189536      -1.78238275
H       -0.66409135       0.67374010      -2.43557963
H        0.65740317      -0.63156657      -2.45157240
C       -0.90989263      -0.90692880      -0.91072765
C        0.90977584       0.90977584      -0.90977584
C       -0.00465871       1.77757030       0.00794375
H       -0.66225468       2.44313916      -0.64384735
H        0.64322798       2.43503045       0.67728295
C       -1.78241447       0.00034974      -0.00472694
H       -2.45427497      -0.65498947       0.64260836
H       -2.43311707       0.67328779      -0.65473579
C       -0.91132561       0.90220522       0.91563759
C       -0.01476271      -0.02253852       1.78660255
H       -0.67934791      -0.69751639       2.42135241
H        0.63392994       0.61504881       2.47327442
C        0.01484550      -1.77751727      -0.01636693
H        0.67870853      -2.42144646      -0.68295456
H       -0.62264859      -2.45592969       0.64226336
C        1.78714474       0.01002794       0.00389507
H        2.44202412       0.67113390       0.66197326
H        2.45385902      -0.65136977      -0.64189061
C        0.91606151      -0.90478549       0.90901405
