190
Properties=species:S:1:pos:R:3 pbc="F F F"
C        1.79230188       1.79230188      -1.79230188
C        3.19396786       1.65178002      -1.72632220
C        4.02636288       2.44309234      -2.52566785
C        3.41505556       3.34887971      -3.37127705
C        2.04203426       3.48922768      -3.42171510
C        1.19469973       2.72202413      -2.64577007
C        1.73953930       4.53650563      -4.39325655
O        0.60339655       4.90508941      -4.62818776
N        2.94085745       4.93383953      -4.93402116
C        3.99346069       4.31284144      -4.30331909
O        5.19087222       4.52954029      -4.35320147
C        3.07712494       5.94211941      -5.92403074
C        2.27674649       7.09456075      -5.81924209
C        2.33206704       8.11712153      -6.77582549
C        3.18308244       7.96394493      -7.87748970
C        4.00415774       6.83294190      -8.01119842
C        3.94585772       5.81259520      -7.03310280
Cl       4.66683004       4.26183111      -7.39297871
N        4.83333165       6.73553721      -9.15367572
C        6.18783501       6.49945710      -9.10596735
O        6.94356582       6.41179912      -8.15661574
C        6.65169199       6.48238700     -10.49226241
C        7.91362027       6.26360975     -11.01021346
C        8.05046713       6.30870838     -12.40227917
C        6.93493278       6.57028984     -13.22464739
Br       7.15671928       6.60057224     -15.10281383
C        5.67074759       6.80686265     -12.68065594
C        5.56768022       6.76227222     -11.30358603
C        4.40991198       6.97644334     -10.43878554
O        3.31324259       7.29037013     -10.86320921
C        1.51161311       9.37682715      -6.62657242
F        2.29293406      10.49207163      -6.59182021
F        0.64070168       9.56017344      -7.65416979
F        0.76737203       9.41041669      -5.48760143
H        3.64008873       0.92508283      -1.04952834
H        5.10776188       2.35309483      -2.48542133
H        0.11821371       2.84462904      -2.70733177
H        1.60646184       7.21516518      -4.96671909
H        3.21705839       8.75537217      -8.62781802
H        8.76109167       6.06516385     -10.36103664
H        9.02962215       6.13755853     -12.84650158
H        4.80277161       7.01237996     -13.29882561
C       -1.79230188      -1.79230188      -1.79230188
C       -1.50663629      -3.16940112      -1.89603267
C       -2.29998505      -4.00214082      -2.69299719
C       -3.36139110      -3.41717321      -3.35664800
C       -3.62781067      -2.06549054      -3.25967583
C       -2.86339679      -1.21862818      -2.48046896
C       -4.79187936      -1.78276334      -4.09465878
O       -5.24261702      -0.66052580      -4.23353090
N       -5.21561493      -2.98855018      -4.60455302
C       -4.34867368      -3.99952558      -4.26142196
O       -4.26397586      -5.14592332      -4.66371480
C       -6.32927232      -3.14265367      -5.47134910
C       -6.53047408      -2.18127031      -6.47880495
C       -7.62530141      -2.24882255      -7.35089009
C       -8.55506858      -3.28313484      -7.18631364
C       -8.38271274      -4.26646885      -6.19911648
C       -7.26767442      -4.19214151      -5.33173979
Cl      -7.26087216      -5.17444171      -3.88632599
N       -9.36461712      -5.27832445      -6.07960302
C       -9.08766252      -6.62590947      -6.07968747
O       -8.03975205      -7.21910987      -6.25311876
C      -10.37244317      -7.31011510      -5.94378313
C      -10.66355908      -8.65834687      -5.86553753
C      -12.01044813      -9.01553216      -5.73547437
C      -13.01398436      -8.02557960      -5.69030605
Br     -14.82089959      -8.54807540      -5.49113035
C      -12.70070972      -6.66832833      -5.78922813
C      -11.36376893      -6.34652032      -5.92324922
C      -10.71862032      -5.04330535      -6.06321518
O      -11.33971142      -3.99862598      -6.12848453
C       -7.80365985      -1.24534196      -8.46601088
F       -7.84359180      -1.84465768      -9.68857642
F       -8.96002790      -0.53912225      -8.35589476
F       -6.80263444      -0.32598403      -8.53677167
H       -0.66293582      -3.59571825      -1.35604583
H       -2.09303641      -5.06374492      -2.78949671
H       -3.09584374      -0.16073380      -2.41359698
H       -5.81297226      -1.36912948      -6.60624438
H       -9.41340377      -3.32843550      -7.85840931
H       -9.87737888      -9.40633954      -5.90357373
H      -12.27742158     -10.06884306      -5.66741762
H      -13.46068977      -5.89419960      -5.75908781
C       -1.79230188       1.79230188       1.79230188
C       -2.87529435       1.21214763       2.48462809
C       -3.69732972       1.99477816       3.30301519
C       -3.39544328       3.33963296       3.40013607
C       -2.34032434       3.90300133       2.70965137
C       -1.51105356       3.15620187       1.89523850
C       -2.31998866       5.32980224       3.01951058
O       -1.51362053       6.09681945       2.52623375
N       -3.32283177       5.55033057       3.93555579
C       -4.05762723       4.40685077       4.14514322
O       -5.11864191       4.23665903       4.71831304
C       -3.63190420       6.81915812       4.49221276
C       -3.59470038       7.94573942       3.65010954
C       -3.85583498       9.23440048       4.13477859
C       -4.12625514       9.39928364       5.49897828
C       -4.18198395       8.29811814       6.36819597
C       -3.92620361       7.00139121       5.86396090
Cl      -3.62077875       5.70519183       6.99566927
N       -4.45006671       8.53528393       7.73719394
C       -5.44141390       7.90162893       8.45021663
O       -6.30198647       7.12143781       8.08855640
C       -5.37904278       8.43886345       9.80843516
C       -6.12927854       8.13120687      10.92695808
C       -5.83194126       8.82272348      12.10678993
C       -4.80694022       9.79116573      12.13176406
Br      -4.42049434      10.68795905      13.75165195
C       -4.07184919      10.10085917      10.98555783
C       -4.39210744       9.40681833       9.83461270
C       -3.83103340       9.50477429       8.48933317
O       -2.97058313      10.31033371       8.18590509
C       -3.86989262      10.43161836       3.21350170
F       -5.07089973      11.07402298       3.23190318
F       -2.93995517      11.36397819       3.55111154
F       -3.63740796      10.11835810       1.90962408
H       -3.08116585       0.14771529       2.38581876
H       -4.53879897       1.56740885       3.84007023
H       -0.68329850       3.61908696       1.36778906
H       -3.37699358       7.82344348       2.58790905
H       -4.31813662      10.40438997       5.87772200
H       -6.91566472       7.38347002      10.88815741
H       -6.40027120       8.60408625      13.00932482
H       -3.28202155      10.84511993      10.98683570
C        1.79230188      -1.79230188       1.79230188
C        1.22749725      -2.42630124       2.91827158
C        2.01029998      -3.24329962       3.74152347
C        3.33954018      -3.39815728       3.39751486
C        3.88850178      -2.76445200       2.30002326
C        3.14109531      -1.95293687       1.46846175
C        5.30227897      -3.12507431       2.24194821
O        6.05670388      -2.68704466       1.39292519
N        5.52671659      -4.01356640       3.26843514
C        4.40344041      -4.15738392       4.04879688
O        4.25139444      -4.68761519       5.13460435
C        6.78593026      -4.60385540       3.55348943
C        7.93858860      -3.80386956       3.44809117
C        9.21837507      -4.32459570       3.68204328
C        9.34603820      -5.68374224       3.99473662
C        8.21849404      -6.51107577       4.11872825
C        6.93150883      -5.97033928       3.88970760
Cl       5.58743540      -7.06528276       3.66892171
N        8.41810595      -7.87765009       4.42678854
C        7.79591851      -8.53355871       5.46378223
O        7.05944417      -8.11536802       6.33716849
C        8.28392166      -9.91125877       5.43116096
C        7.96496837     -10.99193574       6.23053937
C        8.60485122     -12.20494225       5.95166120
C        9.53503224     -12.29912369       4.89571407
Br      10.36176744     -13.96195439       4.53638352
C        9.85750062     -11.19035175       4.11041381
C        9.21492060     -10.00532516       4.41329271
C        9.33885707      -8.68429286       3.80199093
O       10.12338311      -8.43909179       2.90434703
C       10.44610035      -3.44627884       3.62263350
F       11.12956071      -3.44636079       4.80090440
F       11.33292837      -3.84819648       2.67392006
F       10.16952090      -2.14084040       3.35502884
H        0.17500372      -2.28294973       3.15674646
H        1.59485860      -3.73586397       4.61555548
H        3.59216642      -1.47075387       0.60725424
H        7.84501295      -2.74606293       3.19727022
H       10.34378114      -6.09101093       4.16545652
H        7.24726210     -10.89989492       7.04013513
H        8.37575357     -13.07925070       6.55867799
H       10.57289457     -11.24490975       3.29617286
C       -0.00445707       0.01189536      -1.78238275
H       -0.66409135       0.67374010      -2.43557963
H        0.65740317      -0.63156657      -2.45157240
C       -0.90989263      -0.90692880      -0.91072765
C        0.90977584       0.90977584      -0.90977584
C       -0.00465871       1.77757030       0.00794375
H       -0.66225468       2.44313916      -0.64384735
H        0.64322798       2.43503045       0.67728295
C       -1.78241447       0.00034974      -0.00472694
H       -2.45427497      -0.65498947       0.64260836
H       -2.43311707       0.67328779      -0.65473579
C       -0.91132561       0.90220522       0.91563759
C       -0.01476271      -0.02253852       1.78660255
H       -0.67934791      -0.69751639       2.42135241
H        0.63392994       0.61504881       2.47327442
C        0.01484550      -1.77751727      -0.01636693
H        0.67870853      -2.42144646      -0.68295456
H       -0.62264859      -2.45592969       0.64226336
C        1.78714474       0.01002794       0.00389507
H        2.44202412       0.67113390       0.66197326
H        2.45385902      -0.65136977      -0.64189061
C        0.91606151      -0.90478549       0.90901405
