190
Properties=species:S:1:pos:R:3 pbc="F F F"
C        1.79238979       1.79238979      -1.79238979
C        1.65096272       3.17632559      -1.74700927
C        2.45555888       3.98173155      -2.56000449
C        3.41317261       3.41827379      -3.41440135
C        3.53953394       2.02156824      -3.43690825
C        2.73292591       1.20824179      -2.63579482
C        4.24708633       4.26427327      -4.27302082
C        3.90101196       5.66546705      -4.66634686
C        4.92843822       5.99737952      -5.75811340
H        5.33070261       6.99568376      -5.54373644
N        5.96086381       4.96736045      -5.56840436
N        5.46255027       3.87704248      -4.70256036
C        7.26983447       5.06585536      -6.04055932
C        8.19847537       4.04418384      -5.78603178
C        9.52238127       4.11079356      -6.23640862
C        9.94323265       5.21800253      -6.96107823
C        9.05468124       6.25040597      -7.23427411
C        7.73402545       6.16823461      -6.77385487
C        4.33581761       5.95631252      -7.15931655
C        3.80660678       4.77460487      -7.70429140
C        3.27021758       4.75061217      -8.99437301
C        3.26334808       5.90933653      -9.76759857
C        3.78662754       7.08946403      -9.24399520
C        4.30876888       7.10653503      -7.94974322
F        4.79561742       8.26639624      -7.48141377
H        0.92756154       3.64321620      -1.08698533
H        2.34499336       5.06157056      -2.50794613
H        4.27471733       1.56721068      -4.09802055
H        2.85442548       0.13085598      -2.68349835
H        4.04563561       6.32916121      -3.80594358
H        2.86502957       5.76728761      -5.00801552
H        7.87310769       3.17686252      -5.21669504
H       10.19814190       3.29379251      -6.00795479
H        9.36447466       7.12413787      -7.79745686
H        7.06918589       6.99441060      -6.99805704
H        3.83935877       3.85980750      -7.11047333
H        2.87497464       3.82092727      -9.38910447
H        2.86029313       5.88858360     -10.77547157
H        3.80013982       8.00057677      -9.83449729
C       11.30263291       5.29907178      -7.42911530
C       12.44113063       5.36696728      -7.82109635
Br      14.28198515       5.47674856      -8.45489655
C       -1.79238979      -1.79238979      -1.79238979
C       -2.01915046      -3.11873714      -1.43640998
C       -2.82227048      -3.92623281      -2.24879162
C       -3.41422219      -3.41831171      -3.41331386
C       -3.17454238      -2.07708812      -3.74637994
C       -2.36512773      -1.26551831      -2.94631648
C       -4.24625847      -4.26993651      -4.26818544
C       -4.19590803      -5.76501775      -4.27190010
C       -5.03380046      -6.15065313      -5.49947756
H       -5.71092595      -6.96030439      -5.19889247
N       -5.78711408      -4.92107876      -5.78843579
N       -5.21203395      -3.76923154      -5.06088762
C       -6.95620462      -4.87209345      -6.54795108
C       -7.62641095      -3.65473676      -6.74754328
C       -8.80589647      -3.56705803      -7.49662895
C       -9.34023645      -4.71454311      -8.06753384
C       -8.70695256      -5.93876893      -7.89363984
C       -7.52860091      -6.00852098      -7.13899304
C       -4.18202519      -6.58634433      -6.68307715
C       -3.27199579      -5.71253364      -7.30097361
C       -2.50001718      -6.12489848      -8.39028709
C       -2.63298615      -7.41910909      -8.88818795
C       -3.53272222      -8.29804029      -8.28932426
C       -4.29029580      -7.88091954      -7.19383179
F       -5.13934365      -8.76200735      -6.64207642
H       -1.58537551      -3.53775065      -0.53463691
H       -3.00233500      -4.95695174      -1.95522331
H       -3.62243157      -1.66785121      -4.64966578
H       -2.19690468      -0.23382524      -3.23804989
H       -4.67361363      -6.14555145      -3.36157532
H       -3.17305160      -6.15558876      -4.31169234
H       -7.21224704      -2.75457894      -6.29983926
H       -9.28357631      -2.60063033      -7.61568256
H       -9.10923973      -6.84654833      -8.33028133
H       -7.06443682      -6.98036381      -7.01685289
H       -3.18954777      -4.68952402      -6.93056781
H       -1.81085007      -5.42457997      -8.84957633
H       -2.04450756      -7.73616397      -9.74367678
H       -3.65867612      -9.30745719      -8.66908056
C      -10.55344488      -4.63792486      -8.83945026
C      -11.56950693      -4.57375707      -9.48593026
Br     -13.21239335      -4.47000318     -10.53123374
C       -1.79238979       1.79238979       1.79238979
C       -2.67446202       1.20504942       2.69478614
C       -3.48548863       2.01463961       3.49716668
C       -3.41723544       3.41225002       3.41636230
C       -2.51602995       3.97887058       2.50310990
C       -1.70908708       3.17793445       1.68994098
C       -4.27614446       4.25763406       4.25060190
C       -5.54630657       3.79513609       4.89138322
C       -6.18330841       5.09363883       5.40698390
H       -6.52418418       4.91176816       6.43417048
N       -5.06158759       6.04458603       5.39045500
N       -3.93315036       5.51240297       4.59659978
C       -5.02196941       7.23084114       6.12343861
C       -3.89420316       8.06521529       6.06927255
C       -3.81429295       9.25893603       6.79635447
C       -4.87945807       9.64243083       7.60042450
C       -6.01381260       8.84446448       7.68108425
C       -6.07581187       7.65190646       6.94839660
C       -7.34233244       5.56731709       4.54179713
C       -7.16179684       5.92766263       3.19604357
C       -8.23449931       6.36570352       2.41499993
C       -9.50809684       6.46090056       2.97128579
C       -9.70468152       6.11028749       4.30511776
C       -8.62942833       5.66188240       5.07373640
F       -8.86438110       5.32693593       6.35211039
H       -2.74157169       0.12643688       2.78975450
H       -4.16207021       1.54577381       4.20666604
H       -2.45363162       5.06231563       2.42400131
H       -1.02734383       3.65096837       0.99046760
H       -5.30742324       3.13780611       5.73551105
H       -6.19477611       3.24485951       4.20069708
H       -3.05720865       7.76679343       5.44266317
H       -2.91705927       9.86340877       6.71942116
H       -6.85565138       9.12592039       8.30449762
H       -6.97217266       7.04942715       7.04005371
H       -6.15897113       5.88220013       2.76846834
H       -8.06147618       6.64276591       1.38076429
H      -10.33957648       6.81506703       2.36970480
H      -10.68751022       6.18752046       4.76018320
C       -4.80928547      10.86745043       8.35408408
C       -4.75051592      11.89340436       8.98527398
Br      -4.65549052      13.55228507      10.00585467
C        1.79238979      -1.79238979       1.79238979
C        2.52173072      -1.22130248       2.83126438
C        3.33341407      -2.03001897       3.63386188
C        3.41680488      -3.41220845       3.41683442
C        2.66739794      -3.96344094       2.36717156
C        1.86165079      -3.16180777       1.55350397
C        4.27662008      -4.25519048       4.25256987
C        5.42745839      -3.74478883       5.06057865
C        6.14365772      -5.02445170       5.51582172
H        6.36703585      -4.91807333       6.58501363
N        5.13190731      -6.06886839       5.29585293
N        4.03355747      -5.56528293       4.44331271
C        5.14626791      -7.32261533       5.90736592
C        4.12006442      -8.24828155       5.66034502
C        4.09583677      -9.51256399       6.26118269
C        5.11531097      -9.87582840       7.13117403
C        6.14931237      -8.98832585       7.40172310
C        6.15644253      -7.72628542       6.79338698
C        7.42060587      -5.29694434       4.73389645
C        7.40397400      -5.53246107       3.34906798
C        8.58394811      -5.78632656       2.64492808
C        9.80329743      -5.81924983       3.31773593
C        9.83793159      -5.59065517       4.69150001
C        8.65552310      -5.32548718       5.38403685
F        8.73492198      -5.10314638       6.70535906
H        2.46863635      -0.15659574       3.03253098
H        3.88934926      -1.57557566       4.44958514
H        2.72417914      -5.03412345       2.18164597
H        1.30009902      -3.62188832       0.74679247
H        5.04488599      -3.20266842       5.93318599
H        6.07743062      -3.06859994       4.49430214
H        3.31878797      -7.96626412       4.98161315
H        3.27646063     -10.18676568       6.03666289
H        6.95394204      -9.25276224       8.07936511
H        6.97378933      -7.05565059       7.03221360
H        6.44591967      -5.53682025       2.82689968
H        8.53723179      -5.97064284       1.57713175
H       10.71907201      -6.03090888       2.77436741
H       10.77688611      -5.62244212       5.23588564
C        5.10146793     -11.17293053       7.75642153
C        5.08987438     -12.25925356       8.28006631
Br       5.07112860     -14.01574602       9.12675564
C       -0.00445707       0.01189536      -1.78238275
H       -0.66409135       0.67374010      -2.43557963
H        0.65740317      -0.63156657      -2.45157240
C       -0.90989263      -0.90692880      -0.91072765
C        0.90977584       0.90977584      -0.90977584
C       -0.00465871       1.77757030       0.00794375
H       -0.66225468       2.44313916      -0.64384735
H        0.64322798       2.43503045       0.67728295
C       -1.78241447       0.00034974      -0.00472694
H       -2.45427497      -0.65498947       0.64260836
H       -2.43311707       0.67328779      -0.65473579
C       -0.91132561       0.90220522       0.91563759
C       -0.01476271      -0.02253852       1.78660255
H       -0.67934791      -0.69751639       2.42135241
H        0.63392994       0.61504881       2.47327442
C        0.01484550      -1.77751727      -0.01636693
H        0.67870853      -2.42144646      -0.68295456
H       -0.62264859      -2.45592969       0.64226336
C        1.78714474       0.01002794       0.00389507
H        2.44202412       0.67113390       0.66197326
H        2.45385902      -0.65136977      -0.64189061
C        0.91606151      -0.90478549       0.90901405
