182
Properties=species:S:1:pos:R:3 pbc="F F F"
O       -3.95215104       5.16559140      -2.40082572
C       -2.90298099       4.75083656      -2.89794838
N       -1.69399949       4.99975900      -2.29469824
N       -0.46467595       4.53145996      -2.82463780
C        0.08992568       3.66735754      -1.96397439
H       -0.39831217       3.31938368      -1.05727256
C        1.39140654       3.05318101      -2.29286086
C        2.29165804       3.76047854      -3.11208625
C        3.54718335       3.24442117      -3.43734818
C        3.93543012       2.00597088      -2.94104118
C        3.06474040       1.28495387      -2.12505197
C        1.80082232       1.80082232      -1.80082232
C       -2.88369891       3.90846848      -4.14378122
C       -2.59882575       4.69920954      -5.38530098
O       -3.49859867       5.03682899      -6.15395187
N       -1.24507853       4.91382889      -5.61717083
N       -0.87047868       5.63796264      -6.71064601
C        0.38466398       5.60346663      -7.01743655
C        0.86784976       6.38859290      -8.17530438
C        0.24997438       7.62280325      -8.43240040
C        0.64631722       8.40260141      -9.51990187
C        1.65218054       7.94778064     -10.36858970
C        2.26644199       6.71684590     -10.12463692
C        1.88283582       5.93673651      -9.02414856
H       -1.69074974       5.44310434      -1.38323639
H        2.00890215       4.73915518      -3.49532069
H        4.21331380       3.81971613      -4.07265043
H        4.91229543       1.60228964      -3.18715448
H        3.37479377       0.31666473      -1.74323463
H       -3.86517648       3.43379231      -4.25331189
H       -2.17695595       3.07578942      -4.05166076
H       -0.59943388       4.76271133      -4.82766892
H        1.10810619       4.98181772      -6.46229439
H       -0.54797835       7.97721974      -7.78032406
H        0.15970806       9.35711328      -9.70483229
H        1.95071125       8.54685930     -11.22531553
H        3.03655250       6.36808623     -10.80873537
C        2.53522302       4.66389185      -8.85724316
C        3.08159730       3.59788444      -8.71745988
Br       3.96503830       1.87424063      -8.49144215
O        1.83095948       1.14320816      -6.58843373
C        0.75367755       0.69305414      -6.19253564
N        0.66877385      -0.58177685      -5.68745475
N       -0.54650231      -1.13518640      -5.20973309
C       -0.43483865      -1.38770241      -3.89871655
H        0.42744524      -1.10594737      -3.29984194
C       -1.57599085      -1.98446201      -3.17699555
C       -2.47343777      -2.80837321      -3.88241184
C       -3.55641394      -3.42192594      -3.25061282
C       -3.76229640      -3.23030868      -1.88983710
C       -2.88736072      -2.42141352      -1.16597201
C       -1.80082232      -1.80082232      -1.80082232
C       -0.50446257       1.51707437      -6.18116259
C       -1.38301201       1.26745411      -7.37012687
O       -1.40630028       2.04103080      -8.32691272
N       -2.21320628       0.16084506      -7.23355997
N       -3.04360557      -0.17109179      -8.26343261
C       -3.95951080      -1.04467176      -8.00138460
C       -4.87873261      -1.47402148      -9.07899294
C       -4.36438250      -1.55815007     -10.38264547
C       -5.18395933      -1.93852274     -11.44633842
C       -6.52800378      -2.22218598     -11.21836111
C       -7.04976273      -2.13278408      -9.92537800
C       -6.22678363      -1.76638905      -8.85054822
H        1.52536768      -1.10692016      -5.55403850
H       -2.31638603      -2.98158430      -4.94540769
H       -4.22698780      -4.04980425      -3.82888831
H       -4.60011135      -3.70874384      -1.39288436
H       -3.05666901      -2.27474953      -0.10327459
H       -0.22222096       2.57580967      -6.17551643
H       -1.06874635       1.37117758      -5.25292546
H       -1.98020407      -0.51767426      -6.49306805
H       -4.10108614      -1.46169823      -6.98943392
H       -3.31686579      -1.32303899     -10.56966067
H       -4.77059133      -2.00108367     -12.44997863
H       -7.17123838      -2.50298917     -12.04865852
H       -8.10600485      -2.33882097      -9.76854827
C       -6.84264720      -1.66050640      -7.55320442
C       -7.35843295      -1.57182969      -6.46667899
Br      -8.19241487      -1.42844694      -4.70985927
O        4.19269162       3.98666288       3.82029482
C        3.02343621       3.69208616       4.07715401
N        1.98815082       4.23398064       3.35462793
N        0.62987887       3.91378839       3.60751228
C        0.11213880       3.29614611       2.53725030
H        0.69393640       3.00626549       1.66601498
C       -1.30292841       2.87617994       2.55834006
C       -2.21756945       3.60053790       3.34611548
C       -3.57277379       3.26863543       3.38754349
C       -4.04726067       2.20376420       2.63141732
C       -3.16399023       1.47071723       1.84003879
C       -1.80082232       1.80082232       1.80082232
C        2.66339160       2.69133812       5.14060428
C        2.28668968       3.32744875       6.44492571
O        3.07875587       3.38601018       7.38492789
N        0.96001764       3.73781999       6.50811885
N        0.51189356       4.34656422       7.64345931
C       -0.76860794       4.48616885       7.75079036
C       -1.32465318       5.16368854       8.94340532
C       -0.58558521       6.21978363       9.49980919
C       -1.04561800       6.88738966      10.63581284
C       -2.23982740       6.49434855      11.23437493
C       -2.97718110       5.43887254      10.69187117
C       -2.52733388       4.77509854       9.54128847
H        2.20912538       4.80078590       2.54393046
H       -1.86446653       4.44755657       3.93135492
H       -4.24695184       3.85088142       4.00784710
H       -5.10078951       1.94444980       2.65650025
H       -3.54238255       0.63835446       1.25395612
H        3.52978859       2.04216495       5.30955136
H        1.86837994       2.01727930       4.80159487
H        0.44654108       3.81967649       5.61781097
H       -1.46811114       4.08885198       6.99525518
H        0.35715000       6.52222997       9.04448548
H       -0.46309225       7.70467948      11.05388190
H       -2.59114516       7.00305966      12.12868126
H       -3.89754829       5.13235799      11.18346781
C       -3.32140811       3.67407814       9.06087177
C       -3.98644528       2.75197357       8.65852278
Br      -5.06175414       1.26100845       8.00795849
O        6.59496858       1.74617561      -1.23452688
C        6.19237505       0.67823688      -0.76833423
N        5.70040018       0.61269131       0.51274887
N        5.21562861      -0.59120996       1.08458324
C        3.90874416      -0.46246062       1.35005283
H        3.31619812       0.40322848       1.06537442
C        3.18128037      -1.58910387       1.96706417
C        3.88591386      -2.48524392       2.79306504
C        3.24917577      -3.55452119       3.42525573
C        1.88423135      -3.74754802       3.25066282
C        1.16107182      -2.87355170       2.44012273
C        1.80082232      -1.80082232       1.80082232
C        6.15834211      -0.58855880      -1.57835011
C        7.34037945      -1.47732433      -1.33201900
O        8.28832459      -1.51947457      -2.11561696
N        7.20695553      -2.29393210      -0.21496643
N        8.23134369      -3.13191828       0.11486800
C        7.96897186      -4.03537737       1.00121793
C        9.04119472      -4.96164286       1.42890945
C       10.35118788      -4.46072402       1.49326613
C       11.41004025      -5.28773467       1.87104558
C       11.17063283      -6.62604806       2.17186999
C        9.87116975      -7.13454888       2.10220617
C        8.80137187      -6.30386290       1.73848611
H        5.58203537       1.47633577       1.02989138
H        4.95238297      -2.33797923       2.95301583
H        3.82699448      -4.22454657       4.05413931
H        1.38349999      -4.57463466       3.74360491
H        0.09505911      -3.03278708       2.30684694
H        6.14415642      -0.31776187      -2.63999056
H        5.22569865      -1.14102548      -1.41622990
H        6.47650982      -2.04549246       0.46894409
H        6.96017579      -4.16133059       1.43071192
H       10.54695663      -3.41792828       1.24468054
H       12.41872615      -4.88473295       1.91819453
H       11.99693750      -7.27525948       2.45068910
H        9.70516983      -8.18671476       2.32148950
C        7.49634831      -6.90658801       1.65342170
C        6.40339108      -7.41137028       1.58218026
Br       4.63617168      -8.22756053       1.46698887
C       -0.00445707       0.01189536      -1.78238275
H       -0.66409135       0.67374010      -2.43557963
H        0.65740317      -0.63156657      -2.45157240
C       -0.90989263      -0.90692880      -0.91072765
C        0.90977584       0.90977584      -0.90977584
C       -0.00465871       1.77757030       0.00794375
H       -0.66225468       2.44313916      -0.64384735
H        0.64322798       2.43503045       0.67728295
C       -1.78241447       0.00034974      -0.00472694
H       -2.45427497      -0.65498947       0.64260836
H       -2.43311707       0.67328779      -0.65473579
C       -0.91132561       0.90220522       0.91563759
C       -0.01476271      -0.02253852       1.78660255
H       -0.67934791      -0.69751639       2.42135241
H        0.63392994       0.61504881       2.47327442
C        0.01484550      -1.77751727      -0.01636693
H        0.67870853      -2.42144646      -0.68295456
H       -0.62264859      -2.45592969       0.64226336
C        1.78714474       0.01002794       0.00389507
H        2.44202412       0.67113390       0.66197326
H        2.45385902      -0.65136977      -0.64189061
C        0.91606151      -0.90478549       0.90901405
