178
Properties=species:S:1:pos:R:3 pbc="F F F"
O        6.54959984       5.52216625      -0.08454428
C        6.12218811       5.95664935      -1.15434631
C        5.04126104       5.26898232      -1.98773694
O        4.55476319       4.09494477      -1.34414058
C        3.59302627       3.38964742      -2.01442868
C        3.39217687       3.40662087      -3.39667029
C        2.39030973       2.61979784      -3.97214483
C        1.58446256       1.81442384      -3.16928521
C        1.79192897       1.79192897      -1.79192897
C        2.79621335       2.56753751      -1.21406704
N        6.63862011       7.11731013      -1.68962448
N        6.15625964       7.68821506      -2.83561683
C        6.75307667       8.77068143      -3.22804462
C        7.95681705       9.47541698      -2.59723709
O        8.52231239       9.08769211      -1.59649125
N        8.20438241      10.57390570      -3.39604413
C        9.26574602      11.51860148      -3.17700585
C        7.27490165      10.64529155      -4.44345755
C        7.16733486      11.60250304      -5.43407214
C        6.14431528      11.44997840      -6.37879291
C        5.26141667      10.35348655      -6.31521500
C        5.36981907       9.39173755      -5.31114902
C        6.38484985       9.56978307      -4.39204052
H        5.51070007       5.01373830      -2.94400256
H        4.21272334       5.97289649      -2.12984340
H        4.01050549       4.00303555      -4.05867426
H        2.24470362       2.63125309      -5.04947047
H        0.80692038       1.20736815      -3.62480598
H        2.96328278       2.54553441      -0.14010469
H        7.39124421       7.57005869      -1.16291301
H        9.90584421      11.18679375      -2.35398265
H        8.83535304      12.49110471      -2.92274000
H        9.87177824      11.60345405      -4.08365048
H        7.84041049      12.45112163      -5.48983700
H        6.03663643      12.19219122      -7.16794741
H        4.69474633       8.54574773      -5.24533347
C        4.22614130      10.22648630      -7.30802710
C        3.35909818      10.12012359      -8.13950723
Br       1.95716280       9.94814408      -9.48394028
O       -7.18686196      -4.65267627      -0.31677214
C       -6.69745083      -5.27804357      -1.25768936
C       -5.44004091      -4.84633948      -2.01159990
O       -4.87815024      -3.66229924      -1.45339907
C       -3.75514320      -3.17654320      -2.06541596
C       -3.39361714      -3.40699464      -3.39485625
C       -2.23138423      -2.83290770      -3.91796048
C       -1.42524235      -2.02793552      -3.11499373
C       -1.79192897      -1.79192897      -1.79192897
C       -2.95528772      -2.35437133      -1.26815885
N       -7.29997630      -6.43047171      -1.71510672
N       -6.76607976      -7.20703437      -2.70697740
C       -7.45410996      -8.25331208      -3.04438068
C       -8.81022761      -8.71480147      -2.50444205
O       -9.43350489      -8.12825814      -1.64473272
N       -9.10815325      -9.87460980      -3.19156919
C      -10.30763388     -10.64564566      -3.00807382
C       -8.07799632     -10.20033891      -4.08531553
C       -7.98428810     -11.29029690      -4.92932505
C       -6.84381249     -11.39304912      -5.73622499
C       -5.83299780     -10.41252123      -5.68459920
C       -5.92852435      -9.31615635      -4.82802494
C       -7.06156284      -9.24297104      -4.04213957
H       -5.75148475      -4.67003675      -3.04691944
H       -4.70485891      -5.65765430      -1.95295002
H       -4.00368295      -4.00976777      -4.05876457
H       -1.96011900      -3.00946205      -4.95584613
H       -0.52266297      -1.58714309      -3.52928845
H       -3.24580430      -2.16532406      -0.23779352
H       -8.16546043      -6.71278292      -1.24597256
H      -10.99053880     -10.12947705      -2.32660475
H      -10.04846105     -11.61874961      -2.58198709
H      -10.80599745     -10.78048139      -3.97240394
H       -8.75574537     -12.05129797      -4.97432577
H       -6.74475433     -12.24399997      -6.40802077
H       -5.15667384      -8.55660175      -4.77255195
C       -4.67818445     -10.54844061      -6.53402963
C       -3.71102828     -10.66227310      -7.24542762
Br      -2.14721855     -10.84633060      -8.39569800
O       -0.12629649       5.30010902       6.72990486
C       -1.32488683       5.04963725       6.85865968
C       -2.16567156       4.32264504       5.80966369
O       -1.37606293       3.92516721       4.69261840
C       -2.03516243       3.27937589       3.68256404
C       -3.39968797       3.39057146       3.40520859
C       -3.95706971       2.69997416       2.32520853
C       -3.15419044       1.89470468       1.51927649
C       -1.79192897       1.79192897       1.79192897
C       -1.22933539       2.48633350       2.86214901
N       -2.00233480       5.45417441       7.98904551
N       -3.31410958       5.14337295       8.22260900
C       -3.82283203       5.60733138       9.32163931
C       -3.15783710       6.49389108      10.37774294
O       -2.01091764       6.88358405      10.31199406
N       -4.12246681       6.71045946      11.34140597
C       -3.93096202       7.50871958      12.52167175
C       -5.30949298       6.03932118      11.01483660
C       -6.49056517       5.98359253      11.72975235
C       -7.54635079       5.24037448      11.18636133
C       -7.40119132       4.57777048       9.95115642
C       -6.20607153       4.63213254       9.23450157
C       -5.18193212       5.36878020       9.79596112
H       -2.94081611       5.03068529       5.49693953
H       -2.60733491       3.43337942       6.27474890
H       -4.05500691       4.02254020       3.99466819
H       -5.01822313       2.79744067       2.10976338
H       -3.59609535       1.36006433       0.68293483
H       -0.16519709       2.41208163       3.07164316
H       -1.46245805       5.97694193       8.68481593
H       -2.95331630       7.99926475      12.49403956
H       -3.98065407       6.86463647      13.40390722
H       -4.70941298       8.27536442      12.57410537
H       -6.61103963       6.48805597      12.68227351
H       -8.48667984       5.17857227      11.73152296
H       -6.07690889       4.12305138       8.28586726
C       -8.51093392       3.82888061       9.42084017
C       -9.44034335       3.20168535       8.97670031
Br     -10.94311979       2.18756365       8.25856371
O        0.66834081      -3.87779560       7.61017396
C        1.89025465      -3.88382771       7.45910141
C        2.59177922      -3.56758575       6.13861532
O        1.65727621      -3.21294049       5.12363185
C        2.17884572      -2.92653647       3.89172017
C        3.40258669      -3.38995625       3.40292510
C        3.81922096      -3.05053615       2.11249530
C        3.01609082      -2.24592411       1.30615667
C        1.79192897      -1.79192897       1.79192897
C        1.36741581      -2.13560240       3.07479969
N        2.71909749      -4.21760944       8.50884780
N        4.08388297      -4.17224314       8.42396543
C        4.73334904      -4.53071373       9.48773994
C        4.17267505      -5.03790525      10.81889083
O        2.98904962      -5.16529450      11.05215164
N        5.27318763      -5.28658464      11.61455996
C        5.20974542      -5.79301537      12.95859256
C        6.45828742      -4.97015141      10.93521193
C        7.75966786      -5.05203355      11.39220864
C        8.78353970      -4.67656530      10.51298159
C        8.48766833      -4.23437087       9.20807902
C        7.17269798      -4.14834141       8.75166626
C        6.18437544      -4.52134104       9.64095697
H        3.13476728      -4.47641427       5.85725938
H        3.28084897      -2.73087689       6.30373736
H        4.04736007      -4.03490406       3.98995117
H        4.76894549      -3.42140346       1.73507823
H        3.34853607      -1.98553333       0.30502511
H        0.40927346      -1.78737089       3.45227753
H        2.26344681      -4.47020218       9.39056693
H        4.17838066      -6.04804009      13.22019986
H        5.57267299      -5.02707945      13.64944531
H        5.82726087      -6.69225363      13.03936827
H        7.99718112      -5.38872423      12.39546377
H        9.81742802      -4.72944018      10.84990687
H        6.92858067      -3.80457138       7.75267548
C        9.56716256      -3.86321438       8.33027776
C       10.47123899      -3.55237081       7.59511920
Br      11.93305409      -3.04976307       6.40642999
C       -0.00445707       0.01189536      -1.78238275
H       -0.66409135       0.67374010      -2.43557963
H        0.65740317      -0.63156657      -2.45157240
C       -0.90989263      -0.90692880      -0.91072765
C        0.90977584       0.90977584      -0.90977584
C       -0.00465871       1.77757030       0.00794375
H       -0.66225468       2.44313916      -0.64384735
H        0.64322798       2.43503045       0.67728295
C       -1.78241447       0.00034974      -0.00472694
H       -2.45427497      -0.65498947       0.64260836
H       -2.43311707       0.67328779      -0.65473579
C       -0.91132561       0.90220522       0.91563759
C       -0.01476271      -0.02253852       1.78660255
H       -0.67934791      -0.69751639       2.42135241
H        0.63392994       0.61504881       2.47327442
C        0.01484550      -1.77751727      -0.01636693
H        0.67870853      -2.42144646      -0.68295456
H       -0.62264859      -2.45592969       0.64226336
C        1.78714474       0.01002794       0.00389507
H        2.44202412       0.67113390       0.66197326
H        2.45385902      -0.65136977      -0.64189061
C        0.91606151      -0.90478549       0.90901405
