126
Properties=species:S:1:pos:R:3 pbc="F F F"
C        1.82647691       1.82647691      -1.82647691
C        2.67802446       0.98643833      -2.75793667
C        1.87933702       0.32938673      -3.86396596
O        1.69232422      -0.89013710      -3.88057684
N        1.33953482       1.08602738      -4.87116448
C        1.42915129       2.43469785      -5.10744265
O        2.19554870       3.20621199      -4.54898208
O        0.51469101       2.77955510      -6.09696932
C        0.22329539       4.13062068      -6.38141846
C        0.18596578       5.12137925      -5.39916242
C       -0.18622939       6.42115381      -5.74599856
C       -0.54226251       6.71863598      -7.06195027
C       -0.52350224       5.71356912      -8.02954574
C       -0.14430688       4.41430492      -7.69666141
H        2.45039900       2.40199807      -1.13742902
H        1.13984719       2.50279420      -2.33902105
H        3.19603061       0.19589580      -2.20070742
H        3.46640689       1.59453354      -3.21334329
H        0.75067103       0.56627625      -5.50491198
H        0.43537181       4.90688092      -4.36443474
H       -0.20686106       7.19961996      -4.98693241
H       -0.83960017       7.73220861      -7.31978782
H       -0.14200678       3.62853685      -8.44577238
C       -0.91395428       6.01922148      -9.38147910
C       -1.24095787       6.27520534     -10.51372330
Br      -1.76969501       6.68910958     -12.34446641
C       -1.82647691      -1.82647691      -1.82647691
C       -1.24832052      -3.22235030      -1.95172863
C       -1.36465268      -4.03115192      -0.67688511
O       -0.36940629      -4.31030296      -0.00305472
N       -2.58975457      -4.46505306      -0.24191904
C       -3.82927749      -4.32780478      -0.81420952
O       -4.04884448      -3.94697225      -1.95492604
O       -4.79615095      -4.70621400       0.11114951
C       -6.16482562      -4.45141913      -0.11908978
C       -6.62345844      -3.30805861      -0.77499041
C       -7.99643176      -3.08800812      -0.89648310
C       -8.90127635      -3.99438637      -0.34266103
C       -8.42938572      -5.12136096       0.33113406
C       -7.06069238      -5.35624687       0.45027980
H       -1.86223072      -1.32848492      -2.79911046
H       -2.81754079      -1.79405243      -1.37006922
H       -0.18724814      -3.17805634      -2.22732935
H       -1.74223629      -3.77340913      -2.75863831
H       -2.56937440      -4.91413887       0.66165401
H       -5.93734985      -2.57721604      -1.19212158
H       -8.35964062      -2.20425828      -1.41579242
H       -9.96866959      -3.80891560      -0.43481106
H       -6.69217617      -6.22581086       0.98568456
C       -9.36593696      -6.04224116       0.92143181
C      -10.15029862      -6.81347832       1.41580617
Br     -11.41854510      -8.06050359       2.21516771
C       -1.82647691       1.82647691       1.82647691
C       -2.86264467       0.99871522       2.56103957
C       -2.26988536       0.14248259       3.66032175
O       -2.21349606      -1.08560042       3.55486833
N       -1.77486201       0.72298943       4.79887523
C       -1.75094093       2.04115183       5.17919902
O       -2.36335795       2.94995004       4.63743478
O       -0.92645570       2.17331825       6.29144148
C       -0.53148479       3.44472260       6.75912714
C       -0.27812978       4.52094399       5.90743370
C        0.18411540       5.72585468       6.43918370
C        0.41424211       5.84206091       7.81050495
C        0.17944544       4.75107422       8.64798384
C       -0.29127788       3.54603211       8.12934947
H       -2.30334362       2.53870024       1.14778224
H       -1.13744504       2.36191078       2.48230662
H       -3.39176857       0.33554636       1.86531889
H       -3.63115075       1.64352099       2.99961199
H       -1.32044077       0.07565175       5.42576674
H       -0.42689503       4.44520886       4.83458358
H        0.37311669       6.57116029       5.78164772
H        0.78317765       6.78214511       8.21342880
H       -0.46177436       2.69242215       8.77810595
C        0.44025218       4.86763464      10.05936384
C        0.65867782       4.96525399      11.24139460
Br       1.01185360       5.12309622      13.15263835
C        1.82647691      -1.82647691       1.82647691
C        1.81163619      -3.26441646       1.34634680
C        2.56125907      -3.46532282       0.04610782
O        1.96497466      -3.72118879      -1.00339948
N        3.92716410      -3.35846862       0.01109396
C        4.82079463      -3.12473018       1.02576698
O        4.56709724      -3.16260433       2.22104120
O        6.06729628      -2.85098541       0.47293374
C        7.12163626      -2.34873427       1.26496400
C        6.91880344      -1.46322936       2.32447467
C        8.01908577      -0.94927347       3.01256373
C        9.31251653      -1.30096914       2.62483808
C        9.50213573      -2.16868260       1.54879429
C        8.41066018      -2.69553418       0.86046510
H        1.41012033      -1.74556298       2.83414278
H        2.81349020      -1.36063018       1.80754205
H        0.78153586      -3.61219099       1.19890697
H        2.24401880      -3.92793616       2.10232878
H        4.32017792      -3.41822269      -0.91654135
H        5.92222924      -1.15688620       2.62757204
H        7.86674473      -0.26720298       3.84574360
H       10.16305072      -0.88777509       3.16157045
H        8.55718834      -3.36033122       0.01478290
C       10.83886922      -2.51092480       1.13695228
C       11.95838352      -2.79755265       0.79203459
Br      13.76854346      -3.26100564       0.23433187
C       -0.00445707       0.01189536      -1.78238275
H       -0.66409135       0.67374010      -2.43557963
H        0.65740317      -0.63156657      -2.45157240
C       -0.90989263      -0.90692880      -0.91072765
C        0.90977584       0.90977584      -0.90977584
C       -0.00465871       1.77757030       0.00794375
H       -0.66225468       2.44313916      -0.64384735
H        0.64322798       2.43503045       0.67728295
C       -1.78241447       0.00034974      -0.00472694
H       -2.45427497      -0.65498947       0.64260836
H       -2.43311707       0.67328779      -0.65473579
C       -0.91132561       0.90220522       0.91563759
C       -0.01476271      -0.02253852       1.78660255
H       -0.67934791      -0.69751639       2.42135241
H        0.63392994       0.61504881       2.47327442
C        0.01484550      -1.77751727      -0.01636693
H        0.67870853      -2.42144646      -0.68295456
H       -0.62264859      -2.45592969       0.64226336
C        1.78714474       0.01002794       0.00389507
H        2.44202412       0.67113390       0.66197326
H        2.45385902      -0.65136977      -0.64189061
C        0.91606151      -0.90478549       0.90901405
