118
Properties=species:S:1:pos:R:3 pbc="F F F"
C        1.82647691       1.82647691      -1.82647691
C        2.67802446       0.98643833      -2.75793667
C        1.87933702       0.32938673      -3.86396596
O        1.69232422      -0.89013710      -3.88057684
N        1.33953482       1.08602738      -4.87116448
C        1.42915129       2.43469785      -5.10744265
O        2.19554870       3.20621199      -4.54898208
O        0.51469101       2.77955510      -6.09696932
C        0.22329539       4.13062068      -6.38141846
C        0.18596578       5.12137925      -5.39916242
C       -0.18622939       6.42115381      -5.74599856
C       -0.54226251       6.71863598      -7.06195027
C       -0.52350224       5.71356912      -8.02954574
Br      -1.03609186       6.11483282      -9.80437834
C       -0.14430688       4.41430492      -7.69666141
H        2.45039900       2.40199807      -1.13742902
H        1.13984719       2.50279420      -2.33902105
H        3.19603061       0.19589580      -2.20070742
H        3.46640689       1.59453354      -3.21334329
H        0.75067103       0.56627625      -5.50491198
H        0.43537181       4.90688092      -4.36443474
H       -0.20686106       7.19961996      -4.98693241
H       -0.83960017       7.73220861      -7.31978782
H       -0.14200678       3.62853685      -8.44577238
C       -1.82647691      -1.82647691      -1.82647691
C       -1.19677334      -3.18954508      -2.03608104
C       -1.22397879      -4.05492489      -0.79378603
O       -0.18969903      -4.31841325      -0.17465168
N       -2.40996470      -4.55926157      -0.32750041
C       -3.67777681      -4.45223593      -0.84127905
O       -3.96225605      -4.03419715      -1.95428957
O       -4.58703678      -4.91036519       0.10618654
C       -5.97381722      -4.70582573      -0.05569157
C       -6.50759881      -3.55715875      -0.64174990
C       -7.89250902      -3.39200779      -0.69640617
C       -8.73402062      -4.35901774      -0.14528538
C       -8.18691013      -5.49149718       0.45879470
Br      -9.33033680      -6.78379813       1.23101563
C       -6.80575729      -5.67154485       0.51064269
H       -1.92505457      -1.29050440      -2.77426712
H       -2.79730194      -1.85607025      -1.32829025
H       -0.15141288      -3.08785114      -2.35336981
H       -1.70188977      -3.72749004      -2.84490393
H       -2.33176133      -5.04421233       0.55411440
H       -5.87120244      -2.78053705      -1.05494798
H       -8.31432279      -2.50402145      -1.16134707
H       -9.81119256      -4.21634933      -0.18485437
H       -6.37853729      -6.54580981       0.99204465
C       -1.82647691       1.82647691       1.82647691
C       -2.97677614       1.03225607       2.41336725
C       -2.53926215       0.05203761       3.48138995
O       -2.56588735      -1.16538955       3.28226618
N       -2.09543058       0.50488058       4.69641551
C       -2.00433445       1.78500971       5.18194763
O       -2.50219788       2.77768313       4.67086176
O       -1.26417396       1.76772774       6.35931373
C       -0.81472529       2.96513941       6.95546983
C       -0.41472108       4.07780224       6.21398414
C        0.09152707       5.19896918       6.87348087
C        0.21892622       5.19426147       8.26298849
C       -0.16258652       4.06648829       8.99053781
Br       0.04051744       4.05363754      10.86999919
C       -0.67832362       2.94489732       8.34343851
H       -2.19320787       2.62304322       1.17357501
H       -1.15443104       2.25478027       2.57245113
H       -3.49615132       0.46711887       1.62936364
H       -3.72800272       1.70228619       2.84399482
H       -1.74204130      -0.22154431       5.30136227
H       -0.48217851       4.09406499       5.13044398
H        0.39485654       6.07285151       6.30169634
H        0.62310232       6.06923035       8.76626823
H       -0.96317124       2.06192788       8.90720334
C        1.82647691      -1.82647691       1.82647691
C        1.88229397      -3.24518882       1.29491666
C        2.68496859      -3.37065104       0.01707007
O        2.13658941      -3.60853854      -1.06236398
N        4.04633623      -3.21370026       0.03669019
C        4.89373545      -2.98596293       1.09159340
O        4.59895926      -3.07729413       2.27448938
O        6.14820954      -2.64737920       0.59562670
C        7.15410253      -2.13745552       1.44377648
C        6.88067321      -1.29977116       2.52606309
C        7.93573637      -0.77264972       3.27253689
C        9.25440372      -1.06312682       2.92079321
C        9.51456823      -1.88290247       1.82214192
Br      11.30317448      -2.24863656       1.33130825
C        8.46878793      -2.42257797       1.07529355
H        1.37156572      -1.79803440       2.82022598
H        2.79554121      -1.32518472       1.86093651
H        0.87177325      -3.62392724       1.09693333
H        2.31167198      -3.92042576       2.04218599
H        4.47428211      -3.22482149      -0.87724434
H        5.86318409      -1.04080537       2.80269801
H        7.72840044      -0.12790878       4.12338210
H       10.06921897      -0.63995627       3.50322101
H        8.67012477      -3.04981215       0.21236554
C       -0.00445707       0.01189536      -1.78238275
H       -0.66409135       0.67374010      -2.43557963
H        0.65740317      -0.63156657      -2.45157240
C       -0.90989263      -0.90692880      -0.91072765
C        0.90977584       0.90977584      -0.90977584
C       -0.00465871       1.77757030       0.00794375
H       -0.66225468       2.44313916      -0.64384735
H        0.64322798       2.43503045       0.67728295
C       -1.78241447       0.00034974      -0.00472694
H       -2.45427497      -0.65498947       0.64260836
H       -2.43311707       0.67328779      -0.65473579
C       -0.91132561       0.90220522       0.91563759
C       -0.01476271      -0.02253852       1.78660255
H       -0.67934791      -0.69751639       2.42135241
H        0.63392994       0.61504881       2.47327442
C        0.01484550      -1.77751727      -0.01636693
H        0.67870853      -2.42144646      -0.68295456
H       -0.62264859      -2.45592969       0.64226336
C        1.78714474       0.01002794       0.00389507
H        2.44202412       0.67113390       0.66197326
H        2.45385902      -0.65136977      -0.64189061
C        0.91606151      -0.90478549       0.90901405
