97
Properties=species:S:1:pos:R:3 pbc="F F F"
C        0.00000000       0.00000000       0.00000000
C        0.91657289       0.91657289      -0.91657289
C        1.76812043       0.07653431      -1.84803265
C        0.96943299      -0.58051729      -2.95406194
O        0.78242020      -1.80004112      -2.97067282
N        0.42963079       0.17612335      -3.96126046
C        0.51924726       1.52479382      -4.19753863
O        1.28564468       2.29630796      -3.63907805
O       -0.39521301       1.86965108      -5.18706530
C       -0.68660863       3.22071665      -5.47151444
C       -0.72393824       4.21147523      -4.48925840
C       -1.09613341       5.51124978      -4.83609453
C       -1.45216653       5.80873196      -6.15204625
C       -1.43340626       4.80366510      -7.11964171
Br      -1.94599589       5.20492879      -8.89447432
C       -1.05421090       3.50440090      -6.78675739
H        1.54049497       1.49209405      -0.22752500
H        0.22994316       1.59289017      -1.42911702
H        2.28612659      -0.71400823      -1.29080339
H        2.55650287       0.68462952      -2.30343927
H       -0.15923299      -0.34362778      -4.59500796
H       -0.47453222       3.99697690      -3.45453072
H       -1.11676508       6.28971594      -4.07702839
H       -1.74950420       6.82230459      -6.40988380
H       -1.05191080       2.71863283      -7.53586836
C       -0.91657289      -0.91657289      -0.91657289
C       -0.86180873      -2.36351125      -0.46736740
C       -1.57944771      -2.60710676       0.84357683
O       -0.95593293      -2.87198480       1.87486584
N       -2.94622668      -2.52990814       0.90912023
C       -3.86576249      -2.29415703      -0.08166020
O       -3.63666744      -2.30189798      -1.28246527
O       -5.10569647      -2.05833909       0.50253220
C       -6.18672365      -1.56220181      -0.25669699
C       -6.02472145      -0.65085522      -1.30121872
C       -7.14971528      -0.14614226      -1.95535336
C       -8.42709752      -0.53306406      -1.54845009
C       -8.57591072      -1.42668994      -0.48729989
Br     -10.30928270      -1.92409761       0.07997309
C       -7.45944768      -1.94448415       0.16698445
H       -0.52338259      -0.80602319      -1.93070825
H       -1.91240018      -0.47219392      -0.86735626
H        0.17815986      -2.69240392      -0.34867770
H       -1.29624782      -3.02022856      -1.22809527
H       -3.31821498      -2.61715636       1.84322415
H       -5.04133698      -0.31729594      -1.61834248
H       -7.02918396       0.55610443      -2.77689972
H       -9.29716542      -0.12692189      -2.05859688
H       -7.57426200      -2.62960095       1.00127256
C       -0.91657289       0.91657289       0.91657289
C       -0.22135075       2.22210786       1.24922878
C       -0.11822172       3.15992131       0.06483461
O        0.96705236       3.39377027      -0.47366602
N       -1.24014315       3.76524383      -0.43837238
C       -2.54207309       3.70833264      -0.00882602
O       -2.92087476       3.24360933       1.05654661
O       -3.36058864       4.27875147      -0.97783675
C       -4.76455323       4.15318985      -0.91212062
C       -5.40184798       3.00778072      -0.43283331
C       -6.79481169       2.92772578      -0.47132657
C       -7.54063405       3.97720161      -1.00922399
C       -6.88988339       5.10671351      -1.50669636
Br      -7.90309873       6.51254108      -2.26223259
C       -5.49995350       5.20167950      -1.46468562
H       -1.10673504       0.33242674       1.82095224
H       -1.85040183       1.03722066       0.36432787
H        0.79389607       2.03568489       1.62113293
H       -0.74374999       2.74184061       2.05898105
H       -1.07750866       4.29591081      -1.28127229
H       -4.84028855       2.16917925      -0.03249240
H       -7.29736520       2.04213103      -0.08951699
H       -8.62473020       3.90094925      -1.04299526
H       -4.99178874       6.07424276      -1.86344111
C        0.91657289      -0.91657289       0.91657289
C        1.23503982      -0.22832569       2.22932188
C        0.04334475      -0.14024445       3.15938844
O       -0.50450425       0.93950590       3.39706204
N       -0.45613025      -1.26997274       3.75317211
C       -0.01693849      -2.56839705       3.69012115
O        1.05435992      -2.93634470       3.23032607
O       -0.98410630      -3.39777768       4.24783198
C       -0.90751529      -4.80031380       4.11282395
C       -0.41562352      -5.42603886       2.96638005
C       -0.44363649      -6.81863482       2.87621257
C       -0.98361496      -7.57568878       3.91653786
C       -1.49367431      -6.93652385       5.04705101
Br      -2.25189578      -7.96503106       6.44027195
C       -1.46222781      -5.54704281       5.15213238
H        1.82638756      -1.09617824       0.33754823
H        0.37014851      -1.85511558       1.02668628
H        1.60101777       0.79082457       2.05272856
H        2.04479647      -0.74867553       2.75109965
H       -1.30389479      -1.11707869       4.27896330
H       -0.01337340      -4.85571117       2.13463763
H       -0.05201223      -7.31216309       1.98982839
H       -1.00913104      -8.65942640       3.83238883
H       -1.87074497      -5.04793057       6.02540478
