126
Properties=species:S:1:pos:R:3 pbc="F F F"
C        1.82716806       1.82716806      -1.82716806
C        1.03037426       2.98402432      -2.39529751
C        0.68332593       4.02808791      -1.35656667
O       -0.48861822       4.28184658      -1.06907909
N        1.67375711       4.75699362      -0.75118048
C        2.90918175       5.07973703      -1.25844290
O        3.50310491       4.46576231      -2.13324359
O        3.39547215       6.18868731      -0.57236751
C        4.66569606       6.72802607      -0.86025577
C        5.79262192       5.94071042      -1.09381396
C        7.02406675       6.55737089      -1.32825469
C        7.11967129       7.94973721      -1.30510082
C        5.99676313       8.73467423      -1.04424333
C        4.76407433       8.12071542      -0.81529747
H        2.19149100       1.17350957      -2.62377247
H        2.66461495       2.13471709      -1.19844718
H        0.09237331       2.62455855      -2.83973295
H        1.57769538       3.46772668      -3.21034770
H        1.31301182       5.43068051      -0.09126301
H        5.73435945       4.85658477      -1.09772521
H        7.90032869       5.94532217      -1.52424768
H        6.07157385       9.81793883      -1.01475102
H        3.88785766       8.72818107      -0.60361468
C        8.39111340       8.58171651      -1.54517817
C        9.45594616       9.11099916      -1.74624296
Br      11.17769069       9.96680446      -2.07134772
C       -1.82716806      -1.82716806      -1.82716806
C       -3.08694761      -1.08955777      -2.23319070
C       -2.82936047       0.00597290      -3.24459293
O       -3.06598028       1.18777233      -2.98409950
N       -2.37657365      -0.30495497      -4.50040258
C       -2.57642506      -1.46971357      -5.20122305
O       -2.82843378      -2.56159928      -4.71207775
O       -2.38968763      -1.21095052      -6.55588881
C       -2.50066559      -2.23485606      -7.51845626
C       -1.97948314      -3.51481529      -7.33284787
C       -2.09473592      -4.45793792      -8.35701850
C       -2.70847756      -4.10581342      -9.56021834
C       -3.20475464      -2.81691845      -9.75400760
C       -3.09570265      -1.87456394      -8.72982063
H       -2.06496876      -2.70410275      -1.21970153
H       -1.20100632      -2.12770746      -2.66906543
H       -3.56646716      -0.63399477      -1.35620288
H       -3.82530917      -1.78331442      -2.64714618
H       -2.26018239       0.51010539      -5.08487835
H       -1.48506221      -3.79564806      -6.40795916
H       -1.70143839      -5.45998737      -8.20847278
H       -3.67263054      -2.53786499     -10.69376817
H       -3.47384094      -0.86647819      -8.87933428
C       -2.82360037      -5.08004989     -10.61435782
C       -2.92001573      -5.89597292     -11.49719964
Br      -3.07591120      -7.21525146     -12.92468019
C       -1.82716806       1.82716806       1.82716806
C       -1.08457852       3.08015505       2.24496251
C       -0.89743337       4.06176166       1.10878548
O        0.22681567       4.37689008       0.71223305
N       -1.98365006       4.66660185       0.53167930
C       -3.20035247       4.93731352       1.10969568
O       -3.67874493       4.35241217       2.07095371
O       -3.82112737       5.95041680       0.38498279
C       -5.10546859       6.41667372       0.73183559
C       -6.14690602       5.57010661       1.11013368
C       -7.40267373       6.11186093       1.39515768
C       -7.60898015       7.48739818       1.27813100
C       -6.57334069       8.32915924       0.87318076
C       -5.31614810       7.79061409       0.59332503
H       -2.07986464       1.21340085       2.69550755
H       -2.72982835       2.02240255       1.24554831
H       -0.09129702       2.82613430       2.63923349
H       -1.60737102       3.58529218       3.06310656
H       -1.72611948       5.31077688      -0.20194102
H       -6.00338476       4.49679395       1.18849072
H       -8.21142485       5.45487130       1.70360239
H       -6.73511228       9.39839616       0.77075526
H       -4.50822542       8.44180916       0.26961883
C       -8.90530872       8.04190991       1.57078945
C       -9.99098390       8.50631348       1.81589091
Br     -11.74642884       9.25721478       2.21219924
C        1.82716806      -1.82716806       1.82716806
C        2.85329140      -0.99135946       2.56504523
C        2.24746209      -0.15193141       3.66858701
O        2.30136621       1.07965560       3.64059684
N        1.67147160      -0.75294069       4.75751892
C        1.97058432      -1.98131319       5.29546417
O        2.49001967      -2.91348142       4.69860972
O        1.53365510      -2.00626472       6.61660715
C        1.68047988      -3.15935017       7.41414785
C        1.43678151      -4.44850845       6.94185634
C        1.56352441      -5.53374653       7.81242139
C        1.91014717      -5.31726844       9.14709371
C        2.12677010      -4.02475756       9.62415303
C        2.00619143      -2.93930884       8.75458694
H        2.31172772      -2.53117095       1.14587437
H        1.14457104      -2.36912435       2.48408383
H        3.37056079      -0.31500375       1.87110027
H        3.63338927      -1.62713428       2.99524621
H        1.31964907      -0.08615127       5.42915500
H        1.15020354      -4.62825919       5.91020670
H        1.38753435      -6.54014204       7.44222216
H        2.38560925      -3.85353390      10.66512056
H        2.16620913      -1.92955969       9.12388459
C        2.03784018      -6.43821572      10.04195218
C        2.14478307      -7.37700907      10.79139615
Br       2.31770068      -8.89495852      12.00318366
C       -0.00445707       0.01189536      -1.78238275
H       -0.66409135       0.67374010      -2.43557963
H        0.65740317      -0.63156657      -2.45157240
C       -0.90989263      -0.90692880      -0.91072765
C        0.90977584       0.90977584      -0.90977584
C       -0.00465871       1.77757030       0.00794375
H       -0.66225468       2.44313916      -0.64384735
H        0.64322798       2.43503045       0.67728295
C       -1.78241447       0.00034974      -0.00472694
H       -2.45427497      -0.65498947       0.64260836
H       -2.43311707       0.67328779      -0.65473579
C       -0.91132561       0.90220522       0.91563759
C       -0.01476271      -0.02253852       1.78660255
H       -0.67934791      -0.69751639       2.42135241
H        0.63392994       0.61504881       2.47327442
C        0.01484550      -1.77751727      -0.01636693
H        0.67870853      -2.42144646      -0.68295456
H       -0.62264859      -2.45592969       0.64226336
C        1.78714474       0.01002794       0.00389507
H        2.44202412       0.67113390       0.66197326
H        2.45385902      -0.65136977      -0.64189061
C        0.91606151      -0.90478549       0.90901405
