105
Properties=species:S:1:pos:R:3 pbc="F F F"
C        0.00000000       0.00000000       0.00000000
C        0.91726404       0.91726404      -0.91726404
C        0.12047023       2.07412029      -1.48539348
C       -0.22657810       3.11818388      -0.44666265
O       -1.39852224       3.37194256      -0.15917507
N        0.76385309       3.84708959       0.15872355
C        1.99927772       4.16983301      -0.34853887
O        2.59320089       3.55585829      -1.22333956
O        2.48556812       5.27878328       0.33753651
C        3.75579204       5.81812205       0.04964825
C        4.88271789       5.03080639      -0.18390994
C        6.11416272       5.64746687      -0.41835067
C        6.20976727       7.03983319      -0.39519679
C        5.08685911       7.82477020      -0.13433930
C        3.85417031       7.21081139       0.09460655
H        1.28158698       0.26360554      -1.71386845
H        1.75471092       1.22481306      -0.28854316
H       -0.81753072       1.71465452      -1.92982893
H        0.66779135       2.55782266      -2.30044368
H        0.40310780       4.52077648       0.81864101
H        4.82445542       3.94668074      -0.18782118
H        6.99042467       5.03541814      -0.61434366
H        5.16166983       8.90803480      -0.10484700
H        2.97795363       7.81827704       0.30628934
C        7.48120937       7.67181248      -0.63527415
C        8.54604214       8.20109514      -0.83633894
Br      10.26778666       9.05690043      -1.16144369
C       -0.91726404      -0.91726404      -0.91726404
C       -0.11195937      -2.05322141      -1.51480323
C        0.26645741      -3.10733268      -0.49739317
O        1.44631047      -3.34751266      -0.23139320
N       -0.70361549      -3.86021139       0.11160775
C       -1.94163912      -4.19407445      -0.38193604
O       -2.55793567      -3.57616620      -1.23829687
O       -2.40076368      -5.32045068       0.29439947
C       -3.66699561      -5.87467643       0.01740621
C       -4.80901559      -5.10118440      -0.18723424
C       -6.03450551      -5.73292520      -0.41254956
C       -6.10887135      -7.12677543      -0.40915046
C       -4.97048850      -7.89835956      -0.17712055
C       -3.74379801      -7.26921855       0.04264141
H       -1.30341778      -0.25735991      -1.69828328
H       -1.74034658      -1.24690446      -0.28081611
H        0.81367987      -1.67290787      -1.96772473
H       -0.66430680      -2.53292635      -2.32882454
H       -0.32281788      -4.53814551       0.75572013
H       -4.76707156      -4.01636099      -0.17552480
H       -6.92272086      -5.13140969      -0.58605592
H       -5.02860074      -8.98295719      -0.16299369
H       -2.85545790      -7.86638783       0.23190439
C       -7.37420563      -7.77435556      -0.63973481
C       -8.43392309      -8.31670392      -0.83284921
Br     -10.14739658      -9.19363536      -1.14509885
C       -0.91726404       0.91726404       0.91726404
C       -2.13796677       1.38869438       0.15332287
C       -3.14394404       0.28511269      -0.09078830
O       -3.43869003      -0.07267370      -1.23342094
N       -3.79333410      -0.30392732       0.96281235
C       -4.08170470       0.24872764       2.18721727
O       -3.48474382       1.18060769       2.70704723
O       -5.13027755      -0.46429809       2.76083542
C       -5.62204078      -0.13909801       4.04132306
C       -4.79446627       0.18813986       5.11482809
C       -5.36253506       0.45437637       6.36306883
C       -6.74581559       0.36950386       6.52947779
C       -7.56945406       0.01534791       5.46116664
C       -7.00441587      -0.24559860       4.21155787
H       -0.28776603       1.76150253       1.20979241
H       -1.15245470       0.31740945       1.79820300
H       -1.84653713       1.80213950      -0.82172389
H       -2.63526817       2.20614203       0.68464749
H       -4.44950592      -1.01258587       0.66832321
H       -3.71593252       0.24095296       5.00207187
H       -4.71990445       0.72317025       7.19711177
H       -8.64505284      -0.06211241       5.59161119
H       -7.64168431      -0.52982310       3.37808013
C       -7.32753694       0.64263971       7.81811935
C       -7.81472858       0.87139098       8.89735666
Br      -8.60247624       1.24126243      10.64239212
C        0.91726404      -0.91726404       0.91726404
C        2.26696801      -1.14550162       0.26751438
C        3.14442028       0.08712543       0.28097358
O        3.51852067       0.61942480      -0.76650049
N        3.58934287       0.60613188       1.46900814
C        3.80545749      -0.06253541       2.64965671
O        3.27774156      -1.11494448       2.97971270
O        4.68220852       0.68536832       3.42997469
C        5.06322287       0.25667623       4.71771920
C        4.16807058      -0.29707232       5.63229132
C        4.62036806      -0.65488884       6.90472336
C        5.95352328      -0.43577230       7.25550167
C        6.84076049       0.14338603       6.34859416
C        6.39228168       0.49650933       5.07460279
H        0.37203101      -1.85789407       1.02913589
H        0.97228020      -0.41243885       1.88334809
H        2.14333070      -1.46098488      -0.77736284
H        2.80142376      -1.96258901       0.76204492
H        4.17844687       1.41645530       1.34325169
H        3.12498134      -0.45692811       5.37704790
H        3.92709301      -1.09941358       7.61367988
H        7.87579547       0.32492714       6.62368329
H        7.07823283       0.95555698       4.36726549
C        6.41557597      -0.80401419       8.56870585
C        6.80254509      -1.11241677       9.66851435
Br       7.42824144      -1.61107766      11.44681168
