118
Properties=species:S:1:pos:R:3 pbc="F F F"
C        1.82716806       1.82716806      -1.82716806
C        1.03037426       2.98402432      -2.39529751
C        0.68332593       4.02808791      -1.35656667
O       -0.48861822       4.28184658      -1.06907909
N        1.67375711       4.75699362      -0.75118048
C        2.90918175       5.07973703      -1.25844290
O        3.50310491       4.46576231      -2.13324359
O        3.39547215       6.18868731      -0.57236751
C        4.66569606       6.72802607      -0.86025577
C        5.79262192       5.94071042      -1.09381396
C        7.02406675       6.55737089      -1.32825469
C        7.11967129       7.94973721      -1.30510082
Br       8.78897779       8.77947782      -1.62030407
C        5.99676313       8.73467423      -1.04424333
C        4.76407433       8.12071542      -0.81529747
H        2.19149100       1.17350957      -2.62377247
H        2.66461495       2.13471709      -1.19844718
H        0.09237331       2.62455855      -2.83973295
H        1.57769538       3.46772668      -3.21034770
H        1.31301182       5.43068051      -0.09126301
H        5.73435945       4.85658477      -1.09772521
H        7.90032869       5.94532217      -1.52424768
H        6.07157385       9.81793883      -1.01475102
H        3.88785766       8.72818107      -0.60361468
C       -1.82716806      -1.82716806      -1.82716806
C       -3.29227701      -1.61010816      -1.50731091
C       -3.80911021      -0.27149239      -1.98737791
O       -4.23772063       0.57160634      -1.19619318
N       -3.86246118       0.00859892      -3.32806894
C       -4.00057020      -0.87958197      -4.36720951
O       -3.70088245      -2.06458775      -4.33664061
O       -4.48626668      -0.19371275      -5.47654754
C       -4.69855481      -0.84884930      -6.70657380
C       -3.80851024      -1.78257185      -7.23606421
C       -4.07344545      -2.35252349      -8.48372339
C       -5.21044771      -1.96786230      -9.19619931
Br      -5.56319894      -2.74009014     -10.88547060
C       -6.08505323      -1.01359460      -8.67703286
C       -5.82522971      -0.44693155      -7.42792596
H       -1.52616407      -2.85473184      -1.60787713
H       -1.55917441      -1.58218611      -2.85641870
H       -3.46319140      -1.66959845      -0.42387496
H       -3.90606620      -2.40208485      -1.94761871
H       -4.24067822       0.92503730      -3.51931441
H       -2.91213918      -2.07742130      -6.69910895
H       -3.38795281      -3.09065874      -8.89128700
H       -6.96436558      -0.70483029      -9.23506783
H       -6.49979754       0.30308538      -7.02294125
C       -1.82716806       1.82716806       1.82716806
C       -2.59014716       2.83177855       0.98777037
C       -3.69651795       2.19976712       0.17169544
O       -3.68583685       2.23724307      -1.06077246
N       -4.76930988       1.61742845       0.79519288
C       -5.29470974       1.92600018       2.02665176
O       -4.69250753       2.46608159       2.94352170
O       -6.60931633       1.47171771       2.07549292
C       -7.39320015       1.62351037       3.23726738
C       -6.90032867       1.40379050       4.52302713
C       -7.75786236       1.53359733       5.61823265
C       -9.09992892       1.85924874       5.41533166
Br     -10.25708107       2.03113263       6.90054598
C       -9.59724322       2.05178828       4.12664919
C       -8.74079520       1.92812824       3.03116378
H       -1.14313607       2.33040473       2.51523224
H       -2.46736381       1.14324916       2.38716625
H       -1.91248259       3.34906556       0.29511666
H       -3.02235396       3.61461558       1.61880022
H       -5.44499550       1.24754195       0.14241789
H       -5.86254211       1.13359537       4.69253195
H       -7.37179184       1.37634390       6.62176281
H      -10.64385297       2.29424060       3.96617013
H       -9.12579162       2.06937863       2.02448316
C        1.82716806      -1.82716806       1.82716806
C        1.23826334      -1.95390627       3.21752646
C       -0.00428612      -2.81650828       3.25575834
O       -1.09453380      -2.35556234       3.60127892
N        0.07190934      -4.15223234       2.95778953
C        1.15343711      -4.98624942       3.10767515
O        2.32437532      -4.63592864       3.14180686
O        0.69770663      -6.30027786       3.15854248
C        1.59426954      -7.38152520       3.27818317
C        2.79602512      -7.45620450       2.57491668
C        3.60608105      -8.58534043       2.71827086
C        3.19687571      -9.63400162       3.54363199
Br       4.29538430     -11.16112609       3.73224929
C        1.98161594      -9.56922559       4.22483916
C        1.17323385      -8.43938943       4.08746394
H        2.80045672      -1.33081316       1.85750316
H        1.92076175      -2.77780032       1.29921715
H        0.97545308      -0.96477321       3.61643852
H        1.97463597      -2.36756129       3.91357251
H       -0.81976423      -4.61958466       3.03513490
H        3.11718366      -6.65452700       1.91695876
H        4.54950447      -8.63873581       2.18165826
H        1.65635597     -10.38916554       4.85874219
H        0.22152131      -8.38799986       4.61013224
C       -0.00445707       0.01189536      -1.78238275
H       -0.66409135       0.67374010      -2.43557963
H        0.65740317      -0.63156657      -2.45157240
C       -0.90989263      -0.90692880      -0.91072765
C        0.90977584       0.90977584      -0.90977584
C       -0.00465871       1.77757030       0.00794375
H       -0.66225468       2.44313916      -0.64384735
H        0.64322798       2.43503045       0.67728295
C       -1.78241447       0.00034974      -0.00472694
H       -2.45427497      -0.65498947       0.64260836
H       -2.43311707       0.67328779      -0.65473579
C       -0.91132561       0.90220522       0.91563759
C       -0.01476271      -0.02253852       1.78660255
H       -0.67934791      -0.69751639       2.42135241
H        0.63392994       0.61504881       2.47327442
C        0.01484550      -1.77751727      -0.01636693
H        0.67870853      -2.42144646      -0.68295456
H       -0.62264859      -2.45592969       0.64226336
C        1.78714474       0.01002794       0.00389507
H        2.44202412       0.67113390       0.66197326
H        2.45385902      -0.65136977      -0.64189061
C        0.91606151      -0.90478549       0.90901405
