109
Properties=species:S:1:pos:R:3 pbc="F F F"
C        0.00000000       0.00000000       0.00000000
C        0.91504068       0.91504068      -0.91504068
C        1.60020470       0.06011225      -1.96087614
C        2.47941562       0.90755243      -2.85201069
O        2.35134280       2.12412722      -2.96352003
N        3.39085643       0.16366277      -3.58049433
C        4.39631016       0.60897541      -4.41555213
O        5.20168093      -0.21939347      -4.83075362
N        4.37671594       1.95090692      -4.68829185
C        5.25202079       2.69043198      -5.50350418
C        6.37526709       2.15101647      -6.13412070
C        7.19345368       2.95588428      -6.93531250
C        6.88651047       4.30257916      -7.10994214
C        5.77173984       4.85481699      -6.48614178
C        4.96017408       4.04955376      -5.68167596
H        1.63438563       1.40321324      -0.25108583
H        0.26088397       1.67305211      -1.35454817
H        0.86090986      -0.43993195      -2.59757877
H        2.21012424      -0.71478023      -1.48208943
H        3.45420518      -0.83168224      -3.41795707
H        3.61481092       2.46642681      -4.25117383
H        6.64740376       1.10634779      -6.01968024
H        8.06402172       2.51733638      -7.41586476
H        5.52397051       5.90468650      -6.61768244
H        4.09214297       4.49730735      -5.20297660
C        7.72506436       5.12780167      -7.94026447
C        8.42735324       5.81892552      -8.63565943
Br       9.56289497       6.93641434      -9.76005426
C       -0.91504068      -0.91504068      -0.91504068
C       -2.01541007      -1.53026916      -0.07551386
C       -2.90766366      -2.40787723      -0.92343785
O       -2.97082500      -2.32105879      -2.14710627
N       -3.69551782      -3.26453184      -0.17496387
C       -4.55080953      -4.25532176      -0.61470640
O       -5.02488487      -5.01410774       0.22595154
N       -4.77452847      -4.27572289      -1.96566336
C       -5.59467045      -5.14814429      -2.70314221
C       -6.28532967      -6.22739426      -2.14768033
C       -7.08701973      -7.04569450      -2.95193623
C       -7.20194364      -6.78280830      -4.31427982
C       -6.51794752      -5.71225431      -4.88249678
C       -5.71324717      -4.90066841      -4.07748821
H       -0.26117612      -1.67523311      -1.35227547
H       -1.30265669      -0.27413198      -1.71169557
H       -2.64174353      -0.75068693       0.37387379
H       -1.58753111      -2.12777700       0.73787467
H       -3.57109621      -3.29673010       0.82734629
H       -4.29135073      -3.54953849      -2.49152235
H       -6.21843746      -6.46455859      -1.09043574
H       -7.61485014      -7.88169789      -2.50067483
H       -6.60263418      -5.49900687      -5.94469840
H       -5.18703236      -4.06747343      -4.53792113
C       -8.03275308      -7.62116236      -5.13921506
C       -8.72855598      -8.32328389      -5.83009832
Br      -9.85361043      -9.45855502      -6.94719812
C       -0.91504068       0.91504068       0.91504068
C       -1.15203587       2.24298043       0.22617679
C       -2.02568196       3.13761782       1.07567897
O       -2.74409746       2.71629674       1.97859586
N       -1.98698099       4.46417757       0.68385497
C       -2.58186007       5.55767563       1.28130199
O       -2.27741529       6.67146147       0.86416432
N       -3.46021637       5.26519154       2.29050680
C       -4.22057299       6.15275917       3.07262479
C       -4.13591358       7.54370386       2.98078682
C       -4.93371220       8.35772906       3.79320920
C       -5.82123692       7.78048908       4.69730577
C       -5.91511019       6.39589590       4.80169252
C       -5.11241875       5.58584406       3.99314100
H       -0.38707156       1.03621997       1.86539316
H       -1.84114757       0.35983566       1.08750101
H       -1.65796420       2.09586505      -0.73527258
H       -0.19898192       2.74802280       0.03042872
H       -1.35327354       4.74040921      -0.05320274
H       -3.58226163       4.27166230       2.47848763
H       -3.45434354       8.02958349       2.28950476
H       -4.85146656       9.43803929       3.70771700
H       -6.60581943       5.93670197       5.50381806
H       -5.19986248       4.50571163       4.08685282
C       -6.64659079       8.61912030       5.52741941
C       -7.33782466       9.32147394       6.22263959
Br      -8.45549136      10.45712039       7.34675182
C        0.91504068      -0.91504068       0.91504068
C        1.02610407      -0.30025550       2.29483351
C        1.89241400      -1.15407314       3.19249160
O        2.13475832      -2.33703638       2.96719535
N        2.32143091      -0.48711658       4.32646605
C        3.18923568      -0.92401650       5.30758550
O        3.56792863      -0.10502668       6.14008577
N        3.53297114      -2.24770919       5.23523438
C        4.37934245      -2.97922950       6.08738501
C        5.09090276      -2.41901950       7.15048200
C        5.90887028      -3.21957763       7.95620256
C        6.01335672      -4.58429231       7.70138273
C        5.31204375      -5.15644316       6.64421170
C        4.50080394      -4.35292017       5.83767969
H        1.88736776      -0.98285188       0.41846506
H        0.45122343      -1.90511653       0.93214429
H        0.03811501      -0.21759513       2.76284654
H        1.45320032       0.70735861       2.23159173
H        2.10192552       0.49359330       4.43214780
H        3.10003540      -2.76215465       4.47022151
H        5.03614535      -1.35901823       7.37826821
H        6.45579706      -2.76397808       8.77744771
H        5.38679750      -6.22090125       6.43864070
H        3.95869290      -4.81696424       5.01676978
C        6.84961989      -5.40798862       8.53552199
C        7.54999030      -6.09783427       9.23411361
Br       8.68243002      -7.21325635      10.36367719
