162
Properties=species:S:1:pos:R:3 pbc="F F F"
C        1.79145854       1.79145854      -1.79145854
C        2.69692163       1.20248639      -2.67372733
C        3.51185554       2.00632793      -3.47893107
C        3.42654319       3.40339822      -3.39225885
C        2.49681300       3.98100975      -2.51357016
C        1.68302723       3.17756735      -1.71121356
C        4.28502306       4.31986002      -4.20026265
O        3.90226172       5.46896171      -4.40843324
N        5.49673559       3.79863804      -4.62372312
N        6.39385733       4.60243023      -5.27076110
C        7.52836166       4.06746794      -5.58696197
C        7.99999876       2.63031669      -5.35696150
O        7.34193948       1.76436921      -4.81874755
N        9.27682450       2.57393351      -5.86914290
C        9.66112176       3.81332783      -6.38379930
C       10.87346237       4.15454479      -6.95983289
C       11.99687346       3.17697565      -7.10239344
C       11.01863514       5.49205214      -7.37397768
C        9.97135005       6.42628797      -7.21950200
C        8.75461727       6.06396849      -6.64687143
C        8.63595610       4.75172138      -6.24061387
H        2.77347102       0.12002365      -2.74594966
H        4.18707030       1.51822598      -4.17623086
H        2.41058152       5.06499332      -2.44760129
H        0.97436589       3.64382716      -1.03183482
H        5.79600295       2.86222168      -4.35351629
H        9.84433940       1.73960374      -5.84996620
H       12.79907461       3.57906766      -7.72995492
H       11.64512724       2.25391092      -7.57432273
H       12.41811092       2.94195821      -6.11993839
H       11.95788085       5.81763959      -7.81996086
H        7.93959609       6.76735666      -6.51224275
C       10.17066820       7.78405280      -7.65578968
C       10.33759715       8.92118084      -8.02118062
Br      10.60750715      10.75982071      -8.61198687
C       -1.79145854      -1.79145854      -1.79145854
C       -1.46185005      -3.13380931      -1.97747600
C       -2.26297007      -3.94415891      -2.78998556
C       -3.39092237      -3.40552812      -3.42574977
C       -3.72037084      -2.05777722      -3.21324485
C       -2.92061157      -1.25019555      -2.40100102
C       -4.27234475      -4.20498550      -4.32781547
O       -5.43131087      -3.83884039      -4.50950542
N       -3.68174468      -5.29983341      -4.93751867
N       -4.38086022      -6.02063154      -5.86555689
C       -3.75041639      -6.99430106      -6.43807412
C       -2.31784158      -7.47364699      -6.19578839
O       -1.54780520      -6.97714612      -5.40010492
N       -2.13116761      -8.53100313      -7.05773017
C       -3.27907958      -8.76120204      -7.81796727
C       -3.46871424      -9.71820834      -8.80091747
C       -2.39478749     -10.67930892      -9.20214614
C       -4.72105289      -9.71991787      -9.44369419
C       -5.73047892      -8.79928764      -9.08737345
C       -5.52655760      -7.84937020      -8.08952939
C       -4.29065154      -7.85930247      -7.47833734
H       -0.58717876      -3.56037505      -1.49189052
H       -1.99627938      -4.99233206      -2.89291570
H       -4.60228121      -1.63116155      -3.68973337
H       -3.18833100      -0.20710090      -2.25459598
H       -2.69225804      -5.50970603      -4.80977685
H       -1.26548876      -9.04571176      -7.12270881
H       -2.78443733     -11.46055172      -9.86310816
H       -1.97561817     -11.17635428      -8.32138843
H       -1.59621021     -10.15125245      -9.73254487
H       -4.91797273     -10.44242815     -10.23508043
H       -6.28573797      -7.12832875      -7.80512878
C       -6.99365406      -8.83927326      -9.77758336
C       -8.05156324      -8.87276122     -10.35563416
Br      -9.76211291      -8.92690841     -11.29029341
C       -1.79145854       1.79145854       1.79145854
C       -1.41216686       3.10781930       2.05314919
C       -2.21340459       3.91765069       2.86605926
C       -3.39187964       3.40397094       3.42634967
C       -3.77003320       2.08337549       3.13798422
C       -2.97004425       1.27635723       2.32540666
C       -4.27784461       4.20268810       4.32461302
O       -5.45887086       3.88248733       4.43829848
N       -3.66838411       5.24148513       5.00922751
N       -4.37705200       5.95219775       5.93779890
C       -3.73143747       6.86986383       6.58149027
C       -2.26960844       7.29314143       6.42452708
O       -1.48639657       6.79721394       5.64144572
N       -2.07647729       8.30199075       7.34143287
C       -3.24685779       8.55104595       8.06034516
C       -3.43923037       9.47170556       9.07690412
C       -2.34371955      10.36399376       9.56852924
C       -4.71846041       9.50267594       9.66352861
C       -5.74988580       8.64584713       9.22140708
C       -5.54226105       7.73225991       8.19093623
C       -4.28036897       7.71227634       7.63564604
H       -0.49826833       3.51469342       1.62648258
H       -1.90599583       4.94695857       3.02857274
H       -4.69074101       1.67718273       3.55525239
H       -3.27626218       0.25407185       2.11969384
H       -2.66582576       5.41113819       4.93477697
H       -1.19294771       8.77309186       7.46786977
H       -2.72864038      11.13254560      10.24691122
H       -1.86318142      10.87943915       8.73074030
H       -1.59425202       9.77709562      10.10865988
H       -4.91960038      10.19804973      10.47783120
H       -6.31849026       7.05998076       7.84072448
C       -7.04042780       8.71343293       9.85664995
C       -8.12125673       8.77003604      10.38866584
Br      -9.86886570       8.86155848      11.24889055
C        1.79145854      -1.79145854       1.79145854
C        3.06312546      -1.35167175       2.15833815
C        3.87746697      -2.15901413       2.96063343
C        3.42046440      -3.41420427       3.38753159
C        2.13094353      -3.83441867       3.02603071
C        1.31852619      -3.02712182       2.22616013
C        4.24694144      -4.33774349       4.22046079
O        3.68524590      -5.19189576       4.90251500
N        5.61959658      -4.18017489       4.11932528
N        6.45347064      -5.05554731       4.75803070
C        7.72261527      -4.88567474       4.57450156
C        8.42923231      -3.80735834       3.75068631
O        7.86474231      -2.93134403       3.12896990
N        9.77507792      -4.07036675       3.87445624
C        9.99039257      -5.19507792       4.67277840
C       11.20048843      -5.77921543       5.00813619
C       12.51029973      -5.24884083       4.51710199
C       11.14023750      -6.93497333       5.80945414
C        9.90597324      -7.45552294       6.25564384
C        8.69836978      -6.84993404       5.91715338
C        8.77899493      -5.72422036       5.12507606
H        3.42841669      -0.38148892       1.82953873
H        4.85164965      -1.77699095       3.25288654
H        1.75868423      -4.80105693       3.36343498
H        0.32578270      -3.37332602       1.95091916
H        6.03106086      -3.50491887       3.47576119
H       10.49043642      -3.51745050       3.42602242
H       13.35220805      -5.73305294       5.02283622
H       12.58691273      -4.17432339       4.71212476
H       12.60969226      -5.42829847       3.44201679
H       12.06230888      -7.44295864       6.09021378
H        7.73876916      -7.23726077       6.24316559
C        9.89726950      -8.64280362       7.07043756
C        9.88998011      -9.63715120       7.75282731
Br       9.87819379     -11.24492713       8.85619381
C       -0.00445707       0.01189536      -1.78238275
H       -0.66409135       0.67374010      -2.43557963
H        0.65740317      -0.63156657      -2.45157240
C       -0.90989263      -0.90692880      -0.91072765
C        0.90977584       0.90977584      -0.90977584
C       -0.00465871       1.77757030       0.00794375
H       -0.66225468       2.44313916      -0.64384735
H        0.64322798       2.43503045       0.67728295
C       -1.78241447       0.00034974      -0.00472694
H       -2.45427497      -0.65498947       0.64260836
H       -2.43311707       0.67328779      -0.65473579
C       -0.91132561       0.90220522       0.91563759
C       -0.01476271      -0.02253852       1.78660255
H       -0.67934791      -0.69751639       2.42135241
H        0.63392994       0.61504881       2.47327442
C        0.01484550      -1.77751727      -0.01636693
H        0.67870853      -2.42144646      -0.68295456
H       -0.62264859      -2.45592969       0.64226336
C        1.78714474       0.01002794       0.00389507
H        2.44202412       0.67113390       0.66197326
H        2.45385902      -0.65136977      -0.64189061
C        0.91606151      -0.90478549       0.90901405
