133
Properties=species:S:1:pos:R:3 pbc="F F F"
C        0.00000000       0.00000000       0.00000000
C        0.88155451       0.88155451      -0.88155451
C        1.78701761       0.29258237      -1.76382331
C        2.60195152       1.09642391      -2.56902704
C        2.51663916       2.49349419      -2.48235482
C        1.58690897       3.07110572      -1.60366614
C        0.77312321       2.26766332      -0.80130954
C        3.37511903       3.40995599      -3.29035863
O        2.99235770       4.55905768      -3.49852922
N        4.58683156       2.88873402      -3.71381910
N        5.48395330       3.69252621      -4.36085707
C        6.61845764       3.15756391      -4.67705794
C        7.09009474       1.72041267      -4.44705748
O        6.43203546       0.85446518      -3.90884352
N        8.36692048       1.66402948      -4.95923888
C        8.75121773       2.90342381      -5.47389528
C        9.96355834       3.24464076      -6.04992887
C       11.08696944       2.26707162      -6.19248942
C       10.10873111       4.58214811      -6.46407366
C        9.06144602       5.51638395      -6.30959797
Br       9.32332319       7.30030376      -6.88282114
C        7.84471324       5.15406447      -5.73696741
C        7.72605208       3.84181736      -5.33070984
H        1.86356700      -0.78988038      -1.83604564
H        3.27716628       0.60832196      -3.26632683
H        1.50067750       4.15508930      -1.53769726
H        0.06446187       2.73392314      -0.12193080
H        4.88609892       1.95231765      -3.44361227
H        8.93443538       0.82969971      -4.94006218
H       11.88917059       2.66916364      -6.82005090
H       10.73522321       1.34400689      -6.66441870
H       11.50820690       2.03205419      -5.21003436
H       11.04797683       4.90773556      -6.91005684
H        7.02969207       5.85745264      -5.60233873
C       -0.88155451      -0.88155451      -0.88155451
C       -1.19491721      -0.47131995      -2.17718612
C       -2.00808139      -1.27266050      -2.98666058
C       -2.51678653      -2.48267652      -2.49302513
C       -2.17667715      -2.89107847      -1.19392522
C       -1.36389454      -2.09091168      -0.38728984
C       -3.41234938      -3.37162922      -3.29145505
O       -3.48074865      -4.56464394      -3.00455201
N       -4.14657270      -2.75277251      -4.29003948
N       -5.07500427      -3.46815711      -4.99417520
C       -5.76568970      -2.81554014      -5.87184966
C       -5.66562552      -1.33756581      -6.25437355
O       -4.89139871      -0.54576829      -5.75817716
N       -6.61855477      -1.14270950      -7.22892457
C       -7.30948647      -2.32672206      -7.49232829
C       -8.34773242      -2.52272223      -8.38767334
C       -8.89916136      -1.41669577      -9.23067335
C       -8.89652199      -3.81792719      -8.44050370
C       -8.39756003      -4.86039292      -7.62947500
Br      -9.18345295      -6.57749665      -7.74549849
C       -7.34608904      -4.64851440      -6.74114168
C       -6.82842510      -3.37126868      -6.69888549
H       -0.80850994       0.46705162      -2.56827394
H       -2.21136160      -0.93976846      -4.00068500
H       -2.55351205      -3.83594299      -0.80400902
H       -1.11770689      -2.42107254       0.61846362
H       -4.10739589      -1.74377167      -4.43086129
H       -6.78581242      -0.24980623      -7.66857862
H       -9.58909689      -1.79919125      -9.99009698
H       -8.09240009      -0.89536704      -9.75588167
H       -9.44311316      -0.70211541      -8.60506688
H       -9.72549223      -4.02318867      -9.11708833
H       -6.95227051      -5.43333423      -6.10387869
C       -0.88155451       0.88155451       0.88155451
C       -1.46322667       2.03164712       0.34854950
C       -2.26653244       2.84646907       1.15440096
C       -2.47888202       2.51358566       2.50002050
C       -1.90242224       1.34268922       3.01656938
C       -1.10175331       0.52948302       2.21085974
C       -3.30033957       3.35221249       3.42288160
O       -3.79686342       2.83308198       4.41999919
N       -3.40177248       4.69404120       3.09357101
N       -4.03870549       5.55629438       3.94233671
C       -4.04672695       6.80426602       3.60208653
C       -3.45621235       7.45282475       2.34852778
O       -2.87189251       6.85361720       1.46983446
N       -3.72616186       8.79784423       2.46618274
C       -4.40873408       9.06578238       3.65402036
C       -4.83125747      10.29511360       4.13175691
C       -4.58427535      11.57119544       3.39105968
C       -5.47650162      10.29562414       5.38282712
C       -5.69054466       9.09784038       6.09904289
Br      -6.55988717       9.16859835       7.77796257
C       -5.26778232       7.86847686       5.59948594
C       -4.63082228       7.89093042       4.37682658
H       -1.30184444       2.30067468      -0.69278686
H       -2.72843875       3.72020703       0.70316929
H       -2.07176185       1.06532461       4.05637760
H       -0.65831775      -0.36927734       2.63127538
H       -2.90219927       5.08459566       2.29523391
H       -3.44470683       9.48089335       1.77859709
H       -5.13722896      12.40492213       3.83623404
H       -4.91226395      11.48088180       2.35050306
H       -3.51839788      11.81880810       3.41308947
H       -5.81591483      11.23775902       5.81209538
H       -5.41567480       6.93737376       6.13643488
C        0.88155451      -0.88155451       0.88155451
C        0.93794581      -2.25569173       0.64978574
C        1.73925628      -3.06878754       1.45935865
C        2.47750329      -2.50502629       2.50995860
C        2.42535473      -1.11795340       2.71837271
C        1.62607714      -0.30719219       1.90882674
C        3.32957300      -3.31674350       3.42911715
O        4.25157846      -2.76906095       4.02930518
N        2.97352614      -4.64840907       3.56744947
N        3.62717277      -5.43649250       4.47367131
C        3.20620407      -6.65378097       4.59309446
C        2.07860494      -7.35022018       3.82873976
O        1.39670326      -6.82581816       2.97282275
N        2.02810858      -8.63132103       4.33075923
C        2.98792075      -8.81258088       5.32803519
C        3.22828589      -9.95168115       6.07816094
C        2.43167938     -11.20651045       5.90834065
C        4.24274233      -9.86224875       7.04996180
C        4.98158586      -8.67306638       7.23277569
Br       6.32861011      -8.61766240       8.56017558
C        4.73350409      -7.53929500       6.46294602
C        3.73059727      -7.64528212       5.52269988
H        0.36646021      -2.70332159      -0.16004954
H        1.78427267      -4.13116208       1.23638032
H        3.00559634      -0.66589578       3.52197194
H        1.59341587       0.76379429       2.09069422
H        2.14921774      -5.02909118       3.10371993
H        1.36642964      -9.32421796       4.01354967
H        2.87754257     -12.04049898       6.46034357
H        2.39304557     -11.49705329       4.85354994
H        1.41266460     -11.05839543       6.27923542
H        4.46280124     -10.72485781       7.67811018
H        5.28429080      -6.61345200       6.59174063
