186
Properties=species:S:1:pos:R:3 pbc="F F F"
C        3.71347453       6.16737184      -2.43268640
O        2.91263075       5.22267071      -1.73612974
C        2.82071247       3.95030806      -2.23837406
C        2.02243692       3.11916773      -1.43640457
C        1.79191895       1.79191895      -1.79191895
C        2.34312178       1.27245639      -2.95594774
C        3.13134451       2.09170080      -3.76505052
C        3.39995695       3.42163006      -3.40298665
O        4.10629441       4.22352103      -4.25647819
C        5.40298937       3.73022702      -4.62579656
C        5.85983215       4.35433183      -5.95187955
O        5.25543475       5.28077662      -6.49910171
N        6.99185968       3.82216298      -6.52892352
N        7.74016566       2.77230276      -5.92348471
C        8.72195613       2.28042679      -6.68910765
C        9.07439078       2.58348623      -8.11622140
O        8.62886775       3.42767985      -8.87169542
N       10.07160991       1.65960338      -8.42368667
C       10.36784708       0.83363724      -7.33828100
C       11.29515717      -0.19714690      -7.28572361
C       12.13778952      -0.56797307      -8.46247851
C       11.42069128      -0.86664195      -6.05696485
C       10.62451780      -0.50716929      -4.95037387
Br      10.83736510      -1.44330294      -3.31770191
C        9.68681129       0.52113109      -5.03317445
C        9.57251368       1.18243458      -6.24090340
H        3.67712601       7.10467271      -1.86787214
H        3.30943790       6.37708171      -3.42762907
H        4.76090089       5.85279283      -2.46554776
H        1.57513269       3.52983699      -0.53495032
H        2.15687200       0.24563248      -3.25651591
H        3.51204373       1.68895601      -4.70108686
H        5.41716881       2.64243467      -4.73583197
H        6.11473871       4.02506780      -3.84635867
H        7.28921687       4.17391198      -7.43816594
H       10.49683455       1.62761910      -9.33219964
H       12.68696498      -1.49833925      -8.28282938
H       12.86599532       0.22183938      -8.67113829
H       11.51261554      -0.72575207      -9.34748686
H       12.14058969      -1.67521016      -5.95524784
H        9.06377334       0.81169343      -4.19502315
C       -4.10868652      -6.00022128      -2.20462497
O       -3.28179327      -5.06851886      -1.52111907
C       -3.00192481      -3.87415774      -2.13331204
C       -2.20041266      -3.04297181      -1.33462476
C       -1.79191895      -1.79191895      -1.79191895
C       -2.16535904      -1.35130324      -3.05486361
C       -2.95492116      -2.17249649      -3.86067819
C       -3.40203281      -3.42172519      -3.40081566
O       -4.10432445      -4.23869560      -4.24327358
C       -5.29636936      -3.66334957      -4.79929402
C       -5.68579538      -4.38086889      -6.09937926
O       -5.13553366      -5.41676776      -6.48301167
N       -6.69022230      -3.80607635      -6.84664752
N       -7.37504008      -2.62753649      -6.43337657
C       -8.21668474      -2.12807873      -7.34672710
C       -8.45770086      -2.54942986      -8.76696768
O       -8.03502280      -3.51112274      -9.38209748
N       -9.31246437      -1.57096395      -9.27147164
C       -9.62203022      -0.60587475      -8.31186035
C      -10.43144885       0.51087583      -8.46316086
C      -11.10816454       0.83183217      -9.75596260
C      -10.60346210       1.32007243      -7.32762452
C       -9.96453248       1.00724050      -6.11043040
Br     -10.23353214       2.13303134      -4.61126326
C       -9.14157566      -0.11139273      -5.98814845
C       -8.98185298      -0.90907467      -7.10492402
H       -4.23114927      -6.86897876      -1.54954283
H       -3.63389972      -6.35650997      -3.12373900
H       -5.10695725      -5.58936023      -2.38292400
H       -1.89191448      -3.39450447      -0.35350105
H       -1.83898722      -0.38700521      -3.43302796
H       -3.19499919      -1.83916088      -4.86792652
H       -5.18035080      -2.59810200      -5.01698265
H       -6.10953190      -3.79935739      -4.07727588
H       -6.93318160      -4.22427499      -7.74383819
H       -9.63992029      -1.59692956     -10.21980344
H      -11.56711997       1.82588755      -9.73022270
H      -11.89436961       0.09961937      -9.96422275
H      -10.38523542       0.82924864     -10.57836354
H      -11.23693286       2.20196226      -7.38565677
H       -8.63985971      -0.36840175      -5.06222846
C       -5.57151456       1.96119488       4.78082333
O       -4.67088630       1.28995927       3.91058564
C       -3.67828613       2.02075834       3.31035011
C       -2.84860009       1.22675950       2.50264964
C       -1.79191895       1.79191895       1.79191895
C       -1.54934087       3.15737557       1.86480946
C       -2.37265727       3.95757307       2.65786550
C       -3.42085686       3.39768314       3.40603366
O       -4.26122195       4.21716417       4.10790751
C       -3.61981420       5.07829057       5.06090818
C       -4.50273538       6.29625298       5.36705516
O       -5.66807521       6.39439111       4.97284677
N       -3.92903260       7.30613875       6.10777482
N       -2.59823992       7.22828675       6.60942647
C       -2.15575663       8.35532979       7.18040415
C       -2.79915066       9.70861042       7.26633733
O       -3.91685002      10.06740509       6.94398792
N       -1.81195332      10.51963619       7.82331046
C       -0.64262651       9.80612831       8.09101050
C        0.53934943      10.28881799       8.63426531
C        0.70919233      11.72249605       9.01899125
C        1.56963273       9.35335653       8.82729038
C        1.39913049       8.00146437       8.46538849
Br       2.82170741       6.78379351       8.74967796
C        0.20754523       7.54394127       7.90472079
C       -0.80598930       8.46547440       7.72438796
H       -6.26604515       1.21091458       5.17271113
H       -6.17040132       2.70163825       4.24210911
H       -5.04753188       2.39281301       5.63889659
H       -3.04895122       0.16095787       2.43001092
H       -0.74167918       3.61563165       1.30170956
H       -2.20598548       5.03250889       2.66359223
H       -2.64956332       5.43813252       4.70773961
H       -3.48097793       4.51469513       5.99049212
H       -4.46800264       8.15407011       6.27922204
H       -1.96757375      11.49656324       7.99251631
H        1.75017887      11.94636240       9.27527158
H        0.08690983      11.95803466       9.88784817
H        0.43135854      12.37835943       8.18734943
H        2.51398174       9.67395472       9.26065438
H        0.05689282       6.50946027       7.61792247
C        4.56717198      -2.01815762       5.72820317
O        3.73518197      -1.33672459       4.79952464
C        3.21838069      -2.04527881       3.74573508
C        2.39517829      -1.25541302       2.92741791
C        1.79191895      -1.79191895       1.79191895
C        2.00559597      -3.11983971       1.44609022
C        2.82860534      -3.91205119       2.24743930
C        3.41677955      -3.39481812       3.41297599
O        4.28388454      -4.17024598       4.13216311
C        3.75291184      -5.42702259       4.57907852
C        4.88706078      -6.42422690       4.85475585
O        6.07776963      -6.09980161       4.85774184
N        4.51870850      -7.72980837       5.09442930
N        3.15777476      -8.14855040       5.12962798
C        2.98913228      -9.47278760       5.22957070
C        4.00329039     -10.57858913       5.19221889
O        5.21948884     -10.52718317       5.18157101
N        3.23673549     -11.74248791       5.17567657
C        1.86919595     -11.46496015       5.20560921
C        0.81959110     -12.37233082       5.19181196
C        1.04639238     -13.84811403       5.13778856
C       -0.47660016     -11.83391744       5.25369690
C       -0.68124258     -10.44009747       5.30886748
Br      -2.45077570      -9.77000743       5.39253232
C        0.38969550      -9.54756307       5.30385827
C        1.66291688     -10.08155620       5.25137858
H        4.85642540      -1.29524124       6.49800421
H        5.48947503      -2.36907123       5.25560242
H        4.02397444      -2.82337620       6.23189085
H        2.24225545      -0.21101638       3.18664817
H        1.55804001      -3.54728999       0.55369039
H        3.03152223      -4.93441307       1.93615130
H        3.07349175      -5.87384824       3.84809546
H        3.21361567      -5.25505327       5.51749623
H        5.24940293      -8.42863578       5.22325608
H        3.66124983     -12.65134577       5.14405769
H        0.10929132     -14.39015429       4.97200950
H        1.48056929     -14.19954505       6.07885867
H        1.71917784     -14.10287387       4.31229861
H       -1.33658543     -12.49934252       5.25787028
H        0.25389859      -8.47282276       5.34376857
C       -0.00445707       0.01189536      -1.78238275
H       -0.66409135       0.67374010      -2.43557963
H        0.65740317      -0.63156657      -2.45157240
C       -0.90989263      -0.90692880      -0.91072765
C        0.90977584       0.90977584      -0.90977584
C       -0.00465871       1.77757030       0.00794375
H       -0.66225468       2.44313916      -0.64384735
H        0.64322798       2.43503045       0.67728295
C       -1.78241447       0.00034974      -0.00472694
H       -2.45427497      -0.65498947       0.64260836
H       -2.43311707       0.67328779      -0.65473579
C       -0.91132561       0.90220522       0.91563759
C       -0.01476271      -0.02253852       1.78660255
H       -0.67934791      -0.69751639       2.42135241
H        0.63392994       0.61504881       2.47327442
C        0.01484550      -1.77751727      -0.01636693
H        0.67870853      -2.42144646      -0.68295456
H       -0.62264859      -2.45592969       0.64226336
C        1.78714474       0.01002794       0.00389507
H        2.44202412       0.67113390       0.66197326
H        2.45385902      -0.65136977      -0.64189061
C        0.91606151      -0.90478549       0.90901405
