194
Properties=species:S:1:pos:R:3 pbc="F F F"
C        3.71347453       6.16737184      -2.43268640
O        2.91263075       5.22267071      -1.73612974
C        2.82071247       3.95030806      -2.23837406
C        2.02243692       3.11916773      -1.43640457
C        1.79191895       1.79191895      -1.79191895
C        2.34312178       1.27245639      -2.95594774
C        3.13134451       2.09170080      -3.76505052
C        3.39995695       3.42163006      -3.40298665
O        4.10629441       4.22352103      -4.25647819
C        5.40298937       3.73022702      -4.62579656
C        5.85983215       4.35433183      -5.95187955
O        5.25543475       5.28077662      -6.49910171
N        6.99185968       3.82216298      -6.52892352
N        7.74016566       2.77230276      -5.92348471
C        8.72195613       2.28042679      -6.68910765
C        9.07439078       2.58348623      -8.11622140
O        8.62886775       3.42767985      -8.87169542
N       10.07160991       1.65960338      -8.42368667
C       10.36784708       0.83363724      -7.33828100
C       11.29515717      -0.19714690      -7.28572361
C       12.13778952      -0.56797307      -8.46247851
C       11.42069128      -0.86664195      -6.05696485
C       10.62451780      -0.50716929      -4.95037387
C        9.68681129       0.52113109      -5.03317445
C        9.57251368       1.18243458      -6.24090340
H        3.67712601       7.10467271      -1.86787214
H        3.30943790       6.37708171      -3.42762907
H        4.76090089       5.85279283      -2.46554776
H        1.57513269       3.52983699      -0.53495032
H        2.15687200       0.24563248      -3.25651591
H        3.51204373       1.68895601      -4.70108686
H        5.41716881       2.64243467      -4.73583197
H        6.11473871       4.02506780      -3.84635867
H        7.28921687       4.17391198      -7.43816594
H       10.49683455       1.62761910      -9.33219964
H       12.68696498      -1.49833925      -8.28282938
H       12.86599532       0.22183938      -8.67113829
H       11.51261554      -0.72575207      -9.34748686
H       12.14058969      -1.67521016      -5.95524784
H        9.06377334       0.81169343      -4.19502315
C       10.78634396      -1.21890449      -3.70906597
C       10.92187337      -1.81498271      -2.66947060
Br      11.14101296      -2.77879079      -0.98853282
C       -3.40347221      -6.25310132      -2.65695924
O       -2.62336249      -5.30102168      -1.94704703
C       -2.67864507      -3.98918811      -2.34156141
C       -1.88269343      -3.15857922      -1.53673658
C       -1.79191895      -1.79191895      -1.79191895
C       -2.48311457      -1.23070079      -2.85771054
C       -3.27066879      -2.04804227      -3.66938478
C       -3.39847648      -3.42123177      -3.40486541
O       -4.11001817      -4.21058724      -4.26568822
C       -5.46961256      -3.80474388      -4.48465651
C       -5.98919556      -4.35762718      -5.81922077
O       -5.36243910      -5.18039867      -6.49247532
N       -7.20663970      -3.88201166      -6.25429481
N       -7.98111951      -2.95401119      -5.50082243
C       -9.06268405      -2.49003582      -6.13877071
C       -9.51332568      -2.70686363      -7.55390910
O       -9.06919965      -3.44512133      -8.41392205
N      -10.60484256      -1.85221988      -7.69783753
C      -10.87034758      -1.14555181      -6.52386593
C      -11.86949827      -0.20764334      -6.30659227
C      -12.83919071       0.18146838      -7.37457263
C      -11.94033909       0.34708489      -5.01775998
C      -11.02384173      -0.02917481      -4.01470583
C      -10.01722046      -0.96126905      -4.26262733
C       -9.95635223      -1.51054352      -5.52895592
H       -3.24234391      -7.22605144      -2.18127550
H       -3.07265229      -6.34573394      -3.69576246
H       -4.47167217      -6.02995241      -2.57761690
H       -1.32644508      -3.59973339      -0.71374153
H       -2.40727146      -0.17063624      -3.08111268
H       -3.76317975      -1.60613002      -4.53277682
H       -5.58097856      -2.71706903      -4.49738786
H       -6.08420179      -4.22269031      -3.67927307
H       -7.55326550      -4.18407635      -7.16395294
H      -11.10927806      -1.78455177      -8.56282346
H      -13.44366326       1.04258927      -7.07038112
H      -13.51687874      -0.64976366      -7.59233060
H      -12.30877484       0.46424260      -8.28981808
H      -12.71134030       1.07858390      -4.78787097
H       -9.30171574      -1.26266222      -3.50611196
C      -11.13301921       0.56329987      -2.70678610
C      -11.22445535       1.05949742      -1.61140332
Br     -11.37229986       1.86180688       0.15973798
C       -3.17676414       2.84904858       6.28772004
O       -2.43480914       2.10680795       5.32981411
C       -2.58045237       2.42475990       4.00418231
C       -1.76978649       1.63240243       3.17582031
C       -1.79191895       1.79191895       1.79191895
C       -2.62801046       2.73494051       1.20857493
C       -3.44426323       3.52229852       2.02153408
C       -3.40868546       3.39621536       3.41967284
O       -4.27915821       4.12237617       4.18475925
C       -4.21902694       5.54427548       3.99571053
C       -5.53760416       6.20185337       4.42658599
O       -6.43028040       5.58769528       5.01733740
N       -5.69667818       7.53368252       4.11258547
N       -4.68552249       8.29317594       3.45725471
C       -5.06427209       9.52661805       3.10060043
C       -6.41256844      10.18117520       3.18035477
O       -7.44503674       9.79007239       3.69313389
N       -6.24052925      11.39571244       2.51865828
C       -4.93459697      11.55321687       2.05195148
C       -4.41015232      12.62688283       1.34669873
C       -5.23717265      13.81574902       0.97937330
C       -3.04801461      12.55221070       1.01078887
C       -2.27402196      11.42841257       1.36528785
C       -2.82838403      10.35371565       2.05901715
C       -4.16618215      10.43495673       2.39471278
H       -2.90841697       2.46421121       7.27704268
H       -4.25315605       2.69552372       6.16546892
H       -2.90166035       3.90788513       6.26969600
H       -1.12887525       0.88114210       3.62990265
H       -2.67077027       2.85785061       0.13039950
H       -4.13382867       4.21872665       1.54953127
H       -4.02409417       5.81653324       2.95480805
H       -3.41718465       5.93903195       4.62994857
H       -6.58344073       7.98568374       4.33217031
H       -6.99551434      12.04840814       2.41273081
H       -4.70026013      14.47865105       0.29254393
H       -5.49417985      14.38994910       1.87484404
H       -6.15713388      13.50209253       0.47512391
H       -2.58140143      13.37095016       0.46827577
H       -2.25132595       9.47989469       2.33926928
C       -0.88099020      11.39331205       1.00220319
C        0.28567390      11.36391537       0.69811978
Br       2.17207107      11.31638342       0.20644263
C        6.28007140      -2.78901730       3.24444407
O        5.32526262      -2.07108505       2.47508353
C        4.00131842      -2.40228230       2.60579387
C        3.17116791      -1.59588748       1.81095384
C        1.79191895      -1.79191895       1.79191895
C        1.21681038      -2.79957743       2.55513809
C        2.03303539      -3.61256788       3.34249256
C        3.42090614      -3.40589511       3.39777241
O        4.20356596      -4.26998279       4.11274488
C        3.85123730      -4.41036062       5.49741503
C        4.36835385      -5.74481166       6.05287802
O        5.13126416      -6.48186261       5.42218632
N        3.93041428      -6.10389083       7.30864107
N        3.07276849      -5.27549132       8.08769333
C        2.63133349      -5.84352218       9.21663490
C        2.80638226      -7.24600874       9.72170740
O        3.48513518      -8.15757048       9.28553736
N        1.99716073      -7.30267864      10.85506059
C        1.35550311      -6.08706129      11.09720092
C        0.47477476      -5.78348670      12.12547242
C        0.08409009      -6.78901527      13.15918960
C       -0.01913578      -4.46872797      12.16142199
C        0.35831581      -3.52507605      11.18433052
C        1.23155684      -3.85929770      10.15026230
C        1.72146725      -5.15091127      10.12347315
H        7.26451985      -2.36592435       3.01922665
H        6.31185692      -3.84446690       2.95782487
H        6.10978677      -2.65281898       4.31663574
H        3.62200102      -0.81912523       1.19879375
H        0.14561680      -2.97728531       2.53611827
H        1.57675601      -4.43240314       3.89292745
H        2.77029431      -4.36835581       5.65678534
H        4.33178025      -3.59882343       6.05556150
H        4.20790527      -7.01037514       7.68301438
H        1.91484940      -8.14072837      11.40107552
H       -0.73428004      -6.41950433      13.78623083
H        0.93516033      -7.01473282      13.80907985
H       -0.26250849      -7.71269936      12.68415945
H       -0.70376991      -4.17201409      12.95238318
H        1.53270152      -3.14945437       9.38833403
C       -0.17067276      -2.18785958      11.25931862
C       -0.61370068      -1.06794078      11.32212115
Br      -1.33003936       0.74287318      11.42366753
C       -0.00445707       0.01189536      -1.78238275
H       -0.66409135       0.67374010      -2.43557963
H        0.65740317      -0.63156657      -2.45157240
C       -0.90989263      -0.90692880      -0.91072765
C        0.90977584       0.90977584      -0.90977584
C       -0.00465871       1.77757030       0.00794375
H       -0.66225468       2.44313916      -0.64384735
H        0.64322798       2.43503045       0.67728295
C       -1.78241447       0.00034974      -0.00472694
H       -2.45427497      -0.65498947       0.64260836
H       -2.43311707       0.67328779      -0.65473579
C       -0.91132561       0.90220522       0.91563759
C       -0.01476271      -0.02253852       1.78660255
H       -0.67934791      -0.69751639       2.42135241
H        0.63392994       0.61504881       2.47327442
C        0.01484550      -1.77751727      -0.01636693
H        0.67870853      -2.42144646      -0.68295456
H       -0.62264859      -2.45592969       0.64226336
C        1.78714474       0.01002794       0.00389507
H        2.44202412       0.67113390       0.66197326
H        2.45385902      -0.65136977      -0.64189061
C        0.91606151      -0.90478549       0.90901405
