98
Properties=species:S:1:pos:R:3 pbc="F F F"
O        0.57407997       5.62055654      -6.00008849
N        1.63565098       5.04375258      -5.30120040
C        1.20712745       4.19929476      -4.41805741
C       -0.23422883       3.77758744      -4.06376589
O       -1.27021552       4.16729308      -4.55178559
N       -0.09233436       2.84498334      -3.05407283
C        1.24981815       2.63826292      -2.73746862
C        1.78973012       1.78973012      -1.78973012
C        3.18151994       1.75181466      -1.65053068
C        3.99850714       2.56317168      -2.46216324
C        3.45261184       3.41946415      -3.41934080
C        2.07573938       3.43099916      -3.52959863
H        1.02113613       6.22160841      -6.62387460
H       -0.87782252       2.38674820      -2.61586199
H        3.63670231       1.09354555      -0.91302806
H        4.06867288       4.05013434      -4.05213263
C        5.42824809       2.50691936      -2.30006297
C        6.62565613       2.45980803      -2.16430400
Br       8.56176367       2.38363301      -1.94479322
O       -4.40693421      -6.90847444      -0.87931634
N       -4.22393372      -5.91462307      -1.84204717
C       -3.48086045      -4.95693184      -1.38668734
C       -2.81563751      -4.78658382      -0.00490317
O       -2.86411241      -5.53162078       0.94687004
N       -2.14075655      -3.58331509      -0.08265017
C       -2.30531301      -2.98762077      -1.33261591
C       -1.78973012      -1.78973012      -1.78973012
C       -2.09449945      -1.39290697      -3.09645887
C       -2.90708237      -2.20349571      -3.91326398
C       -3.42700153      -3.41327116      -3.45114410
C       -3.10568358      -3.77369527      -2.15695831
H       -4.96890785      -7.55949599      -1.33821531
H       -1.60466140      -3.20421035       0.68408410
H       -1.70317737      -0.45478290      -3.48531564
H       -4.05397090      -4.04864826      -4.06832069
C       -3.20711209      -1.77365403      -5.25446430
C       -3.45838697      -1.41366162      -6.37771957
Br      -3.86467722      -0.83158434      -8.19392833
O       -6.85552270       4.49573825       0.84346405
N       -5.87811005       4.28516880       1.81732512
C       -4.92969737       3.52653469       1.36824757
C       -4.75480274       2.86893674      -0.01661499
O       -5.49079306       2.93258356      -0.97451346
N       -3.56033862       2.17928981       0.06709338
C       -2.97651381       2.32394021       1.32509567
C       -1.78973012       1.78973012       1.78973012
C       -1.40376665       2.07628695       3.10381169
C       -2.21395054       2.88954883       3.92034268
C       -3.41204617       3.42905592       3.45031470
C       -3.76168237       3.12583013       2.14882468
H       -7.49752594       5.07283625       1.29625695
H       -3.18084501       1.64384684      -0.69990419
H       -0.47433489       1.67038722       3.49855381
H       -4.04659103       4.05742104       4.06692778
C       -1.79577866       3.17000742       5.26944433
C       -1.44555971       3.40489149       6.39931696
Br      -0.87928529       3.78467916       8.22622544
O        6.67084749      -0.74148486       4.78239266
N        5.75416835      -1.74888348       4.47755213
C        4.81589968      -1.30540753       3.70317242
C        4.59733488       0.10357006       3.11335969
O        5.27504335       1.09365225       3.26747205
N        3.44474365      -0.00326087       2.35871729
C        2.92212740      -1.29506304       2.40835925
C        1.78973012      -1.78973012       1.78973012
C        1.46036574      -3.13506617       1.98843337
C        2.27123496      -3.95197562       2.80063148
C        3.41488412      -3.45188183       3.42465083
C        3.70980606      -2.12017815       3.20635295
H        7.31486300      -1.19538895       5.35636719
H        3.05012843       0.77208697       1.84674620
H        0.57477064      -3.55401526       1.51449001
H        4.04959581      -4.06858705       4.05275699
C        1.91149525      -5.33334400       2.99039117
C        1.61021324      -6.49024002       3.14931491
Br       1.12306571      -8.36084303       3.40628115
C       -0.00445707       0.01189536      -1.78238275
H       -0.66409135       0.67374010      -2.43557963
H        0.65740317      -0.63156657      -2.45157240
C       -0.90989263      -0.90692880      -0.91072765
C        0.90977584       0.90977584      -0.90977584
C       -0.00465871       1.77757030       0.00794375
H       -0.66225468       2.44313916      -0.64384735
H        0.64322798       2.43503045       0.67728295
C       -1.78241447       0.00034974      -0.00472694
H       -2.45427497      -0.65498947       0.64260836
H       -2.43311707       0.67328779      -0.65473579
C       -0.91132561       0.90220522       0.91563759
C       -0.01476271      -0.02253852       1.78660255
H       -0.67934791      -0.69751639       2.42135241
H        0.63392994       0.61504881       2.47327442
C        0.01484550      -1.77751727      -0.01636693
H        0.67870853      -2.42144646      -0.68295456
H       -0.62264859      -2.45592969       0.64226336
C        1.78714474       0.01002794       0.00389507
H        2.44202412       0.67113390       0.66197326
H        2.45385902      -0.65136977      -0.64189061
C        0.91606151      -0.90478549       0.90901405
