90
Properties=species:S:1:pos:R:3 pbc="F F F"
O        0.57407997       5.62055654      -6.00008849
N        1.63565098       5.04375258      -5.30120040
C        1.20712745       4.19929476      -4.41805741
C       -0.23422883       3.77758744      -4.06376589
O       -1.27021552       4.16729308      -4.55178559
N       -0.09233436       2.84498334      -3.05407283
C        1.24981815       2.63826292      -2.73746862
C        1.78973012       1.78973012      -1.78973012
C        3.18151994       1.75181466      -1.65053068
C        3.99850714       2.56317168      -2.46216324
Br       5.87686783       2.48926867      -2.24919965
C        3.45261184       3.41946415      -3.41934080
C        2.07573938       3.43099916      -3.52959863
H        1.02113613       6.22160841      -6.62387460
H       -0.87782252       2.38674820      -2.61586199
H        3.63670231       1.09354555      -0.91302806
H        4.06867288       4.05013434      -4.05213263
O       -3.71860750      -7.25227174      -1.22384577
N       -3.75899502      -6.14673787      -2.07487108
C       -3.07319107      -5.16114317      -1.59014539
C       -2.26956278      -5.06080150      -0.27676022
O       -2.12422287      -5.90348593       0.57884565
N       -1.74097087      -3.78411386      -0.28163708
C       -2.11631086      -3.08251495      -1.42672388
C       -1.78973012      -1.78973012      -1.78973012
C       -2.28905511      -1.29514199      -2.99966818
C       -3.10235528      -2.10530634      -3.81618044
Br      -3.76224822      -1.40713634      -5.44595159
C       -3.43135095      -3.41087450      -3.44919135
C       -2.92107076      -3.86621829      -2.24904812
H       -4.25876771      -7.91313285      -1.69471858
H       -1.16057192      -3.42757165       0.46335590
H       -2.04927822      -0.28089944      -3.31309826
H       -4.05625349      -4.04718710      -4.06749927
O       -7.21352235       3.80972810       1.17147455
N       -6.12003070       3.82179789       2.03877536
C       -5.14114372       3.12022051       1.56311540
C       -5.03737198       2.32465816       0.24509436
O       -5.87333727       2.19511855      -0.61959267
N       -3.76716875       1.78081791       0.25873515
C       -3.07432911       2.13556017       1.41566042
C       -1.78973012       1.78973012       1.78973012
C       -1.30315826       2.27020456       3.01050246
C       -2.11303410       3.08418316       3.82662480
Br      -1.42616971       3.71749054       5.47167589
C       -3.41000438       3.43339706       3.44801536
C       -3.85739047       2.94182970       2.23711700
H       -7.86790782       4.36511602       1.63359530
H       -3.41029102       1.20120794      -0.48671130
H       -0.29532666       2.01535208       3.33259717
H       -4.04571931       4.05970504       4.06551550
O        6.69483659      -0.75293866       4.74694974
N        5.77036722      -1.75662627       4.45361047
C        4.83013444      -1.31215701       3.68218818
C        4.61643308       0.09456801       3.08525944
O        5.30093453       1.08147365       3.22940228
N        3.45872749      -0.00984894       2.33814538
C        2.92873679      -1.29817963       2.39863328
C        1.78973012      -1.78973012       1.78973012
C        1.45355840      -3.13186276       1.99844413
C        2.26439963      -3.94876408       2.81067836
Br       1.78248780      -5.75919469       3.07365365
C        3.41472236      -3.45182237       3.42487206
C        3.71625436      -2.12323200       3.19685081
H        7.33956442      -1.20726650       5.31978822
H        3.06567603       0.76478669       1.82389831
H        0.56266239      -3.54831468       1.53229885
H        4.04950169      -4.06856755       4.05287061
C       -0.00445707       0.01189536      -1.78238275
H       -0.66409135       0.67374010      -2.43557963
H        0.65740317      -0.63156657      -2.45157240
C       -0.90989263      -0.90692880      -0.91072765
C        0.90977584       0.90977584      -0.90977584
C       -0.00465871       1.77757030       0.00794375
H       -0.66225468       2.44313916      -0.64384735
H        0.64322798       2.43503045       0.67728295
C       -1.78241447       0.00034974      -0.00472694
H       -2.45427497      -0.65498947       0.64260836
H       -2.43311707       0.67328779      -0.65473579
C       -0.91132561       0.90220522       0.91563759
C       -0.01476271      -0.02253852       1.78660255
H       -0.67934791      -0.69751639       2.42135241
H        0.63392994       0.61504881       2.47327442
C        0.01484550      -1.77751727      -0.01636693
H        0.67870853      -2.42144646      -0.68295456
H       -0.62264859      -2.45592969       0.64226336
C        1.78714474       0.01002794       0.00389507
H        2.44202412       0.67113390       0.66197326
H        2.45385902      -0.65136977      -0.64189061
C        0.91606151      -0.90478549       0.90901405
