165
Properties=species:S:1:pos:R:3 pbc="F F F"
C        0.00000000       0.00000000       0.00000000
C        0.41179539       0.96009444      -5.06820395
O        1.48927613       1.65382986      -4.45333033
C        1.54525567       1.64462287      -3.08039531
C        0.76684785       0.80862835      -2.26984372
C        0.88269082       0.88269082      -0.88269082
C        1.78336337       1.76389830      -0.29423304
C        2.57708304       2.58801302      -1.09812283
C        2.46732417       2.53832345      -2.49182564
O        3.16444992       3.34400493      -3.35905011
C        4.33231213       4.00115397      -2.89773154
C        4.10063029       5.42280220      -2.37951410
O        3.85184980       5.64145317      -1.19319048
N        4.23214527       6.41054775      -3.34923796
N        4.16195338       7.72608591      -2.97568930
C        4.17762264       8.62086048      -3.91015027
C        4.24547080       8.42820981      -5.42299737
O        4.39635080       7.35612043      -5.97449024
N        4.11720872       9.68605273      -5.96509275
C        4.02339229      10.65163560      -4.95783406
C        3.90121855      12.02158473      -5.08237583
Br       3.78423110      12.85797526      -6.76973816
C        3.86650080      12.79243995      -3.91260575
C        3.94719044      12.18751290      -2.63461835
C        3.97290045      13.03369296      -1.39291684
C        4.05390844      10.79290164      -2.52638993
C        4.08340460      10.06142193      -3.69789937
H        0.57639450      -0.12145615      -5.02678982
H        0.38246582       1.25603636      -6.12115049
H       -0.55318521       1.22987487      -4.62584186
H        0.06574123       0.10001540      -2.69664691
H        1.86937358       1.83067893       0.78763035
H        3.24866841       3.27819572      -0.59743078
H        5.01688837       4.06205347      -3.75264089
H        4.88099997       3.42180532      -2.14458161
H        4.33546967       6.17397561      -4.33834051
H        4.12406446       9.87917548      -6.95763136
H        3.78051031      13.87598502      -3.98475226
H        3.64338701      14.05715944      -1.59990668
H        4.99102561      13.07464345      -0.99253883
H        3.30403581      12.61906995      -0.63195277
H        4.12030681      10.29498930      -1.56279270
C        0.78913274      -3.50402489      -3.72520162
O       -0.61860881      -3.31930777      -3.65851975
C       -1.10246307      -2.50366894      -2.66414185
C       -0.30136773      -1.66356742      -1.88038476
C       -0.88269082      -0.88269082      -0.88269082
C       -2.25717604      -0.91136229      -0.67295638
C       -3.06508394      -1.73373189      -1.46440307
C       -2.50022346      -2.53467615      -2.46257365
O       -3.20445051      -3.41114989      -3.25190456
C       -4.60889258      -3.25797070      -3.36433437
C       -5.42248305      -4.10119449      -2.37926906
O       -5.74820213      -3.66314230      -1.27514902
N       -5.77398344      -5.35744389      -2.86050365
N       -6.60046530      -6.15179053      -2.11147275
C       -6.82304430      -7.35574628      -2.52984282
C       -6.27025754      -8.06023182      -3.76618861
O       -5.58650027      -7.52463037      -4.61583082
N       -6.72173957      -9.35742950      -3.68918513
C       -7.53541302      -9.53215384      -2.56529510
C       -8.19200894     -10.67102376      -2.14214642
Br      -8.03626307     -12.30790422      -3.06777723
C       -8.99081422     -10.58689674      -0.99383553
C       -9.11927373      -9.37112840      -0.27891957
C      -10.03019446      -9.28239186       0.91307607
C       -8.43157385      -8.22819041      -0.71343575
C       -7.65095762      -8.34454858      -1.84721970
H        1.27493517      -2.61547890      -4.14118444
H        0.98368411      -4.34177413      -4.40156264
H        1.21338966      -3.76594197      -2.74997921
H        0.77142896      -1.60625352      -2.02757898
H       -2.71249895      -0.31051951       0.11059631
H       -4.12919614      -1.74429629      -1.25080248
H       -4.87889282      -3.57290512      -4.37978479
H       -4.93210319      -2.21114228      -3.30414143
H       -5.39309986      -5.71587757      -3.73880835
H       -6.51479934     -10.07150417      -4.37456779
H       -9.52670642     -11.46903000      -0.64551117
H      -10.30494978     -10.27642676       1.28092342
H      -10.94770355      -8.75096393       0.64045959
H       -9.53771315      -8.75116271       1.73381733
H       -8.50853315      -7.27834854      -0.19120713
C       -3.90985132      -0.77081188       3.30105434
O       -3.77428804       0.63914869       3.18299959
C       -2.72423621       1.11242048       2.43361716
C       -1.93868789       0.31378793       1.59284410
C       -0.88269082       0.88269082       0.88269082
C       -0.61540167       2.24381503       0.98227801
C       -1.40753199       3.05035779       1.80532911
C       -2.46419925       2.49704181       2.53623220
O       -3.26112540       3.19767772       3.40870185
C       -3.30588846       4.61105580       3.31425339
C       -2.32565888       5.34232727       4.23496044
O       -1.18990858       5.63654908       3.86003579
N       -2.84740598       5.66066888       5.48385612
N       -2.09999344       6.41754871       6.34618644
C       -2.56220006       6.60664176       7.53979158
C       -3.85171237       6.08026578       8.16469982
O       -4.70504569       5.45921136       7.56270442
N       -3.81384259       6.47147678       9.48303483
C       -2.66493451       7.22539542       9.74253202
C       -2.26561691       7.81255055      10.92701165
Br      -3.26991297       7.62824693      12.51378462
C       -1.08131350       8.56168885      10.92854415
C       -0.30747244       8.71009897       9.75175029
C        0.92547175       9.56936495       9.75561705
C       -0.71929304       8.09258798       8.56131899
C       -1.88976588       7.35955929       8.59340073
H       -4.30593278      -1.19862038       2.37441576
H       -4.63102942      -0.97062581       4.09924905
H       -2.96661793      -1.24947479       3.58538838
H       -2.12926207      -0.74781797       1.48095944
H        0.21332726       2.68885012       0.43689929
H       -1.14894871       4.10231944       1.87302677
H       -4.32191266       4.91270644       3.59696363
H       -3.18471226       4.97605458       2.28662006
H       -3.75657124       5.30464784       5.78656670
H       -4.53898650       6.26503626      10.15684853
H       -0.75031048       9.04281454      11.84812257
H        1.25966010       9.78415821      10.77595500
H        0.71688450      10.52028170       9.25481069
H        1.74732000       9.06376377       9.23861475
H       -0.15196628       8.18681576       7.63930677
C        1.95244534      -4.78316576      -0.29551733
O        2.29294985      -4.30464134       0.99884513
C        1.97506517      -3.00087555       1.29433313
C        1.13438891      -2.20184434       0.50908667
C        0.88269082      -0.88269082       0.88269082
C        1.44025904      -0.35771134       2.04352433
C        2.26536431      -1.15579443       2.84206016
C        2.54079961      -2.47823183       2.47844182
O        3.37916348      -3.31932560       3.16901588
C        3.70196236      -3.01435359       4.51488170
C        4.99454501      -2.21412947       4.69427212
O        4.99010093      -0.98260077       4.71379175
N        6.13039184      -2.99804024       4.86349890
N        7.32398586      -2.39067647       5.14906626
C        8.38349558      -3.13201480       5.19312302
C        8.51615412      -4.63287122       4.94765263
O        7.58063684      -5.38536024       4.76096438
N        9.86417241      -4.90183754       5.00234425
C       10.58805052      -3.74329584       5.30151560
C       11.95160659      -3.59296029       5.46061223
Br      13.14266739      -5.03831847       5.23095867
C       12.44270773      -2.32590759       5.80293117
C       11.56941264      -1.22441848       5.97549058
C       12.10640221       0.11187571       6.40498375
C       10.18848676      -1.39142150       5.79329176
C        9.73648008      -2.65201457       5.45423125
H        0.87624084      -4.97131476      -0.36582743
H        2.47106264      -5.73473575      -0.44614573
H        2.28631475      -4.10050130      -1.08428454
H        0.67180638      -2.58451780      -0.39392064
H        1.25338032       0.67366443       2.33270626
H        2.69940355      -0.69905118       3.72584019
H        3.82510930      -3.97313389       5.03333952
H        2.88446129      -2.51396452       5.04896109
H        6.10049662      -4.01178997       4.73549919
H       10.26452946      -5.82157382       4.87476802
H       13.51356441      -2.18402391       5.94365928
H       13.19221759       0.16673819       6.27497371
H       11.87770265       0.28157662       7.46208187
H       11.66146662       0.91426926       5.80786116
H        9.48892386      -0.56953603       5.91962893
