173
Properties=species:S:1:pos:R:3 pbc="F F F"
C        0.00000000       0.00000000       0.00000000
C        0.41179539       0.96009444      -5.06820395
O        1.48927613       1.65382986      -4.45333033
C        1.54525567       1.64462287      -3.08039531
C        0.76684785       0.80862835      -2.26984372
C        0.88269082       0.88269082      -0.88269082
C        1.78336337       1.76389830      -0.29423304
C        2.57708304       2.58801302      -1.09812283
C        2.46732417       2.53832345      -2.49182564
O        3.16444992       3.34400493      -3.35905011
C        4.33231213       4.00115397      -2.89773154
C        4.10063029       5.42280220      -2.37951410
O        3.85184980       5.64145317      -1.19319048
N        4.23214527       6.41054775      -3.34923796
N        4.16195338       7.72608591      -2.97568930
C        4.17762264       8.62086048      -3.91015027
C        4.24547080       8.42820981      -5.42299737
O        4.39635080       7.35612043      -5.97449024
N        4.11720872       9.68605273      -5.96509275
C        4.02339229      10.65163560      -4.95783406
C        3.90121855      12.02158473      -5.08237583
C        3.86650080      12.79243995      -3.91260575
C        3.94719044      12.18751290      -2.63461835
C        3.97290045      13.03369296      -1.39291684
C        4.05390844      10.79290164      -2.52638993
C        4.08340460      10.06142193      -3.69789937
H        0.57639450      -0.12145615      -5.02678982
H        0.38246582       1.25603636      -6.12115049
H       -0.55318521       1.22987487      -4.62584186
H        0.06574123       0.10001540      -2.69664691
H        1.86937358       1.83067893       0.78763035
H        3.24866841       3.27819572      -0.59743078
H        5.01688837       4.06205347      -3.75264089
H        4.88099997       3.42180532      -2.14458161
H        4.33546967       6.17397561      -4.33834051
H        4.12406446       9.87917548      -6.95763136
H        3.78051031      13.87598502      -3.98475226
H        3.64338701      14.05715944      -1.59990668
H        4.99102561      13.07464345      -0.99253883
H        3.30403581      12.61906995      -0.63195277
H        4.12030681      10.29498930      -1.56279270
C        3.81193926      12.65987844      -6.37009099
C        3.73716785      13.19444943      -7.44855244
Br       3.61626880      14.05880549      -9.19233339
C       -3.06485721       0.72987912      -4.10511569
O       -3.23899304      -0.62944507      -3.72799821
C       -2.44679834      -1.11013619      -2.71333932
C       -1.66783826      -0.30079150      -1.87669015
C       -0.88269082      -0.88269082      -0.88269082
C       -0.88344483      -2.26094274      -0.69710714
C       -1.67331979      -3.07323489      -1.51666421
C       -2.45879696      -2.51046127      -2.52821503
O       -3.22361291      -3.22975348      -3.41413857
C       -3.56849753      -4.56699551      -3.09570461
C       -2.61658602      -5.62279019      -3.66357039
O       -1.64286055      -6.02078367      -3.02284923
N       -2.97559164      -6.09534899      -4.92099035
N       -2.26327786      -7.12511330      -5.47533743
C       -2.54793182      -7.47172682      -6.68897475
C       -3.58126601      -6.87457097      -7.64084099
O       -4.37972787      -6.01081850      -7.33641510
N       -3.40340000      -7.52507234      -8.83988187
C       -2.40387430      -8.49717858      -8.73180907
C       -1.93925017      -9.37012199      -9.69580695
C       -0.94774090     -10.29135359      -9.33245201
C       -0.42783531     -10.32592553      -8.01556087
C        0.58872349     -11.36203039      -7.62620335
C       -0.89937905      -9.42039567      -7.05342528
C       -1.87518011      -8.52382123      -7.44372456
H       -3.51547385       1.39636477      -3.36261909
H       -3.58685896       0.88182904      -5.05462274
H       -2.01031769       0.97651638      -4.26873021
H       -1.65570118       0.77810057      -1.98480292
H       -0.26498856      -2.71864211       0.07120851
H       -1.62527011      -4.14525546      -1.35376935
H       -4.56264682      -4.74535436      -3.52358154
H       -3.69724587      -4.73159432      -2.01854672
H       -3.73025022      -5.66100574      -5.45652982
H       -3.94868763      -7.34090528      -9.67127839
H       -0.57188697     -10.99697661     -10.07238402
H        1.03837397     -11.83157140      -8.50725569
H        0.11135083     -12.14342955      -7.02612917
H        1.39757923     -10.90700716      -7.04563059
H       -0.52518285      -9.41968740      -6.03321856
C       -2.44786332      -9.35118458     -11.04286079
C       -2.87382683      -9.33532451     -12.17101838
Br      -3.56257380      -9.30968011     -13.99515378
C       -5.05459107       1.05973107       0.32577163
O       -4.41609154       1.92639162       1.25395317
C       -3.06329914       1.76975481       1.43721990
C       -2.24450781       0.99406932       0.60674279
C       -0.88269082       0.88269082       0.88269082
C       -0.32273210       1.55530530       1.96345732
C       -1.13111475       2.34653544       2.78556871
C       -2.50230466       2.46162436       2.53354423
O       -3.38274429       3.17058025       3.31418043
C       -2.87679598       4.15438754       4.20001413
C       -2.62073761       3.65721617       5.62499281
O       -1.52665855       3.20070206       5.95913285
N       -3.70534985       3.80405986       6.48252127
N       -3.55286592       3.50156008       7.80930259
C       -4.60405312       3.54198094       8.56259934
C       -6.04596965       3.86849200       8.18221632
O       -6.39955065       4.24497793       7.08243288
N       -6.78858134       3.65869691       9.32107596
C       -5.96475096       3.28171387      10.38639712
C       -6.31519629       2.99820824      11.69177458
C       -5.29422757       2.67994240      12.59737652
C       -3.93879387       2.64186775      12.18866009
C       -2.85100230       2.36153545      13.18697250
C       -3.60256352       2.91606977      10.85456672
C       -4.63203222       3.22422809       9.98646558
H       -4.82451242       1.35907178      -0.70185604
H       -6.13501709       1.15454258       0.47009299
H       -4.79242921       0.01057299       0.49952932
H       -2.64627859       0.46867594      -0.25255099
H        0.73739445       1.46298751       2.18682909
H       -0.65811201       2.83405194       3.63213096
H       -3.63149520       4.94875446       4.25133306
H       -1.97646754       4.65228177       3.81863759
H       -4.62305805       4.09004394       6.13468379
H       -7.78911229       3.79332136       9.37843766
H       -5.54418454       2.46204035      13.63502271
H       -3.25621022       1.93418536      14.11005754
H       -2.32928274       3.29062060      13.43830456
H       -2.13136847       1.64440421      12.77928584
H       -2.57335405       2.89839276      10.50634201
C       -7.68646900       3.02491958      12.13052011
C       -8.83490991       3.04729032      12.49796949
Br     -10.69184171       3.08346193      13.09210405
C        4.18386735      -2.96223741      -0.70601099
O        3.78225460      -3.17314905       0.64103267
C        2.74112337      -2.41273643       1.11641405
C        1.90513416      -1.63433281       0.30585295
C        0.88269082      -0.88269082       0.88269082
C        0.66843494      -0.91670313       2.25635665
C        1.48751084      -1.70643641       3.06927165
C        2.52710563      -2.45844935       2.51191827
O        3.41392556      -3.21976662       3.23381279
C        3.07507155      -3.59965521       4.55647089
C        3.60034992      -2.65882312       5.64377356
O        2.93084596      -1.70739151       6.04825599
N        4.85499944      -3.00149538       6.13543615
N        5.37241678      -2.29988157       7.19143024
C        6.58434707      -2.56646406       7.55782227
C        7.57028594      -3.56673655       6.95965549
O        7.30104972      -4.35278239       6.07312936
N        8.75142163      -3.37778864       7.63914393
C        8.60179424      -2.40168949       8.62937823
C        9.53723439      -1.93576016       9.53218456
C        9.13367144      -0.97191819      10.46595687
C        7.80556048      -0.48047118      10.48329004
C        7.37307449       0.50541724      11.53185299
C        6.87280956      -0.95258342       9.54780703
C        7.30245524      -1.90068739       8.63958327
H        3.46522143      -3.41394339      -1.39743664
H        5.14725275      -3.46094625      -0.84854634
H        4.33007458      -1.89949364      -0.92703671
H        2.03546182      -1.59694211      -0.77000039
H       -0.12227866      -0.32431899       2.71038182
H        1.30128572      -1.68466422       4.13834497
H        3.52023018      -4.58823259       4.72311994
H        1.99770222      -3.75434109       4.69534360
H        5.41545681      -3.73537832       5.69695066
H        9.59791808      -3.90155167       7.46140156
H        9.85053088      -0.59582960      11.19488711
H        8.23434627       0.96324871      12.02935556
H        6.76713352      -0.00092895      12.29014542
H        6.78501386       1.31149459      11.08153925
H        5.84509395      -0.59983547       9.53315940
C       10.89492749      -2.41562344       9.53135776
C       12.03199546      -2.81750895       9.53066531
Br      13.87053819      -3.46732381       9.52954569
