157
Properties=species:S:1:pos:R:3 pbc="F F F"
C        0.00000000       0.00000000       0.00000000
O        4.46316952      -4.85346680      -6.15341861
C        3.79000901      -4.20581756      -5.35698120
C        4.44932960      -3.44919783      -4.21296613
S        5.23503583      -1.90163349      -4.79074008
C        3.80379117      -1.02720877      -5.53600408
H        3.38476086      -1.60374513      -6.36429510
C        4.18662192       0.35375292      -6.00835275
C        3.80658364       1.23809253      -4.85975076
O        4.20379605       2.39365682      -4.79899895
N        2.93950096       0.55809583      -4.02501781
C        2.30327995       1.11538342      -2.86510242
C        2.48740014       2.45896170      -2.49164322
C        1.88875647       3.00122823      -1.34552550
C        1.08241143       2.21197684      -0.53760480
C        0.88302507       0.88302507      -0.88302507
C        1.48374913       0.33889078      -2.02599365
C        2.76895888      -0.73663501      -4.47731317
O        1.96395020      -1.59271364      -4.12037892
N        2.41448261      -4.03846016      -5.39517654
C        1.51138198      -4.56584922      -6.34040965
C        1.88482980      -5.38652807      -7.40691206
C        0.92384781      -5.87114167      -8.30152692
C       -0.41608304      -5.53706637      -8.12937923
Br      -1.71325053      -6.20165000      -9.33169048
C       -0.80415684      -4.71727787      -7.07378207
C        0.15907312      -4.23195301      -6.18384742
H        5.22863431      -4.09356587      -3.79204587
H        3.74886955      -3.24435929      -3.39890381
H        3.57915833       0.65352324      -6.87113007
H        5.24429847       0.46525916      -6.26456730
H        3.10347423       3.14197350      -3.06882135
H        2.06147525       4.04470561      -1.09019658
H        0.62253270       2.63704660       0.35023516
H        1.29377164      -0.71003327      -2.22262745
H        2.00517081      -3.41908838      -4.69413608
H        2.91824038      -5.67306458      -7.57567017
H        1.23766799      -6.50927747      -9.12371499
H       -1.84854702      -4.45274027      -6.93178696
H       -0.16485031      -3.59352014      -5.36480440
O       -8.33709463       3.35105626      -0.77708296
C       -7.17724959       2.95343835      -0.71736141
C       -6.83660306       1.64408582      -0.02058066
S       -7.26806344       0.19718800      -1.05326698
C       -6.27238549       0.52056438      -2.56076538
H       -6.57372180       1.45965559      -3.03124463
C       -6.38558968      -0.61329909      -3.54983882
C       -5.19009549      -1.46537598      -3.24895545
O       -5.09982736      -2.60063248      -3.69599198
N       -4.28084175      -0.73410756      -2.50766529
C       -2.98330089      -1.19670621      -2.10375868
C       -2.49873269      -2.46383939      -2.47543298
C       -1.24273479      -2.93050627      -2.06226914
C       -0.43010180      -2.13801273      -1.26387854
C       -0.88302507      -0.88302507      -0.88302507
C       -2.13955013      -0.41701980      -1.29206362
C       -4.80282645       0.51267570      -2.21948629
O       -4.25484037       1.50020161      -1.73697672
N       -6.07022999       3.57401057      -1.27497956
C       -6.04070552       4.77205135      -2.01728824
C       -7.16667302       5.55181708      -2.29035785
C       -7.05112856       6.73143947      -3.03454396
C       -5.80581401       7.13572334      -3.50613915
Br      -5.65033714       8.73449098      -4.50094379
C       -4.67456697       6.36798340      -3.24576379
C       -4.79415550       5.18808744      -2.50489947
H       -7.42417259       1.59459374       0.90246454
H       -5.78692358       1.60135635       0.28215317
H       -6.27934432      -0.24636342      -4.57810390
H       -7.31380037      -1.18715142      -3.47317313
H       -3.07259885      -3.14457250      -3.09709774
H       -0.90826661      -3.91953434      -2.36857650
H        0.54143439      -2.50549790      -0.94528064
H       -2.43073436       0.56685177      -0.94248323
H       -5.17670908       3.08706900      -1.19057844
H       -8.15564491       5.27403095      -1.93923200
H       -7.94114149       7.32291049      -3.23387451
H       -3.69840358       6.67736941      -3.60946549
H       -3.89784744       4.60281438      -2.31140089
O       -2.09497111      -4.09146351       7.75961372
C       -1.73661112      -3.52606652       6.73062805
C       -2.74199309      -3.17301185       5.64411666
S       -3.73390108      -1.70320422       6.09344555
C       -2.42180625      -0.44249528       6.33327551
H       -1.74342936      -0.73614369       7.13802516
C       -3.00965817       0.91677983       6.62228959
C       -3.04803588       1.57825529       5.27813575
O       -3.69566585       2.60081570       5.09997027
N       -2.21657969       0.89764335       4.40839155
C       -1.93901045       1.28926398       3.05549135
C       -2.48033625       2.46108466       2.49658414
C       -2.23297059       2.83460390       1.16793571
C       -1.43069608       2.04429240       0.35700459
C       -0.88302507       0.88302507       0.88302507
C       -1.13253747       0.50664373       2.20945236
C       -1.68490269      -0.21233946       5.03707381
O       -0.78795001      -0.96702566       4.67069114
N       -0.44850559      -3.10968640       6.43237980
C        0.70396114      -3.24321693       7.23312047
C        0.71977794      -3.86068240       8.48567412
C        1.90913311      -3.95401534       9.21738151
C        3.08833776      -3.43085771       8.69542529
Br       4.69513469      -3.56801067       9.67993531
C        3.08869819      -2.80919765       7.45024319
C        1.89787316      -2.71455068       6.72339138
H       -3.42186922      -4.02406249       5.52930757
H       -2.26253872      -3.03099840       4.67187375
H       -2.33862072       1.50453512       7.26065580
H       -4.00193751       0.89008450       7.08210292
H       -3.11823919       3.13269494       3.06333495
H       -2.67562653       3.74702950       0.77372140
H       -1.24388263       2.33773929      -0.67227778
H       -0.68269607      -0.42089985       2.54456960
H       -0.31958800      -2.59773488       5.55836539
H       -0.17679847      -4.28387214       8.92791963
H        1.89769227      -4.43992740      10.18972518
H        4.00548714      -2.39918682       7.03517362
H        1.91949713      -2.22583909       5.75177017
O        8.56590681       2.82231148       0.01952600
C        7.38184090       2.50101976       0.06035151
C        6.91268293       1.17621504      -0.52336998
S        7.32050857      -0.22826408       0.57536977
C        6.45147441       0.25644337       2.11755544
H        6.84275836       1.20091075       2.50346323
C        6.55927741      -0.81759501       3.17185517
C        5.29464894      -1.60424801       3.00552998
O        5.16312764      -2.70022907       3.53309510
N        4.38548258      -0.86158330       2.27554872
C        3.03693483      -1.26005493       1.98677602
C        2.49936641      -2.46546411       2.47317454
C        1.19129988      -2.87138047       2.17282985
C        0.37835482      -2.07789890       1.37573934
C        0.88302507      -0.88302507       0.88302507
C        2.19129578      -0.47806423       1.17927355
C        4.96466237       0.32631926       1.87129392
O        4.44892340       1.31610094       1.35879303
N        6.35654936       3.22904790       0.64369752
C        6.45315866       4.47092202       1.30370577
C        7.64210213       5.18851360       1.45162525
C        7.65202214       6.41798168       2.12019260
C        6.46952502       6.93455371       2.64125851
Br       6.48315477       8.59992846       3.53356364
C        5.27694393       6.23009661       2.50550004
C        5.27125783       5.00029303       1.84000273
H        7.43220333       1.02879431      -1.47629471
H        5.84434637       1.18545856      -0.75547375
H        6.54621822      -0.37996897       4.17762445
H        7.44199476      -1.45657512       3.07555504
H        3.06969913      -3.14271254       3.10185741
H        0.81637122      -3.81416279       2.56584344
H       -0.63380241      -2.39830175       1.14484480
H        2.51987511       0.45977042       0.74626114
H        5.43034116       2.79925245       0.64912981
H        8.58550786       4.82284811       1.05818621
H        8.58912224       6.95936917       2.22235244
H        4.34914187       6.62715644       2.90851423
H        4.32867615       4.46587153       1.74362932
