165
Properties=species:S:1:pos:R:3 pbc="F F F"
C        0.00000000       0.00000000       0.00000000
O        4.46316952      -4.85346680      -6.15341861
C        3.79000901      -4.20581756      -5.35698120
C        4.44932960      -3.44919783      -4.21296613
S        5.23503583      -1.90163349      -4.79074008
C        3.80379117      -1.02720877      -5.53600408
H        3.38476086      -1.60374513      -6.36429510
C        4.18662192       0.35375292      -6.00835275
C        3.80658364       1.23809253      -4.85975076
O        4.20379605       2.39365682      -4.79899895
N        2.93950096       0.55809583      -4.02501781
C        2.30327995       1.11538342      -2.86510242
C        2.48740014       2.45896170      -2.49164322
C        1.88875647       3.00122823      -1.34552550
C        1.08241143       2.21197684      -0.53760480
C        0.88302507       0.88302507      -0.88302507
C        1.48374913       0.33889078      -2.02599365
C        2.76895888      -0.73663501      -4.47731317
O        1.96395020      -1.59271364      -4.12037892
N        2.41448261      -4.03846016      -5.39517654
C        1.51138198      -4.56584922      -6.34040965
C        1.88482980      -5.38652807      -7.40691206
C        0.92384781      -5.87114167      -8.30152692
C       -0.41608304      -5.53706637      -8.12937923
C       -0.80415684      -4.71727787      -7.07378207
C        0.15907312      -4.23195301      -6.18384742
H        5.22863431      -4.09356587      -3.79204587
H        3.74886955      -3.24435929      -3.39890381
H        3.57915833       0.65352324      -6.87113007
H        5.24429847       0.46525916      -6.26456730
H        3.10347423       3.14197350      -3.06882135
H        2.06147525       4.04470561      -1.09019658
H        0.62253270       2.63704660       0.35023516
H        1.29377164      -0.71003327      -2.22262745
H        2.00517081      -3.41908838      -4.69413608
H        2.91824038      -5.67306458      -7.57567017
H        1.23766799      -6.50927747      -9.12371499
H       -1.84854702      -4.45274027      -6.93178696
H       -0.16485031      -3.59352014      -5.36480440
C       -1.40471015      -6.04357412      -9.04571232
C       -2.23268535      -6.46777437      -9.81314128
Br      -3.57145123      -7.15367028     -11.05400901
O       -8.70704090       2.24484088       0.69907868
C       -7.51061998       2.00579057       0.56365676
C       -6.92252497       0.68127657       1.02815050
S       -7.31422371      -0.67620460      -0.13371411
C       -6.58094963      -0.04024434      -1.69139250
H       -7.05478927       0.89837809      -1.98889966
C       -6.69143264      -1.05154598      -2.80574898
C       -5.37218329      -1.76156258      -2.77068106
O       -5.20809913      -2.81156880      -3.37678388
N       -4.46454351      -1.00708868      -2.05098241
C       -3.07771031      -1.33257078      -1.87348469
C       -2.49973694      -2.46722975      -2.47103837
C       -1.15198981      -2.80352388      -2.27999651
C       -0.33888616      -2.00897790      -1.48412901
C       -0.88302507      -0.88302507      -0.88302507
C       -2.23064507      -0.54795028      -1.07003821
C       -5.08830759       0.11248011      -1.53380955
O       -4.60220733       1.10050691      -0.98991506
N       -6.57336405       2.83489513      -0.03273006
C       -6.79034986       4.10621754      -0.60181008
C       -8.02872136       4.75132533      -0.62781776
C       -8.15917209       6.01656273      -1.21162370
C       -7.04811113       6.64162440      -1.76974309
C       -5.80773731       6.01059254      -1.75520258
C       -5.68168543       4.74493131      -1.17421341
H       -7.36767047       0.44092426       1.99963191
H       -5.84380549       0.74679575       1.19359568
H       -6.77217023      -0.55243186      -3.77920955
H       -7.52447095      -1.75230044      -2.69735354
H       -3.06729589      -3.14041519      -3.10655800
H       -0.74610488      -3.69320236      -2.75707020
H        0.70426727      -2.27538883      -1.33822259
H       -2.58741699       0.33738636      -0.55633519
H       -5.62465905       2.46852244      -0.12408191
H       -8.91949287       4.30029667      -0.20164976
H       -9.13277297       6.50002439      -1.21935693
H       -4.93508762       6.49244743      -2.18785946
H       -4.70344102       4.26912893      -1.17212186
C       -7.18225833       7.94716590      -2.36233562
C       -7.29460661       9.04055691      -2.85863187
Br      -7.47626427      10.80847770      -3.66110093
O       -2.63927525      -4.33280349       7.45664957
C       -2.20788103      -3.73923987       6.47253148
C       -3.14417369      -3.29084316       5.35976737
S       -4.08909643      -1.79767641       5.83272239
C       -2.73443261      -0.61212170       6.19027557
H       -2.10853208      -0.97320180       7.00998056
C       -3.27357925       0.75894306       6.51620529
C       -3.21894372       1.48119816       5.20428505
O       -3.81089272       2.54005684       5.04550225
N       -2.37891127       0.80198664       4.34171669
C       -2.02070729       1.24049088       3.02256761
C       -2.48196517       2.46039562       2.49564427
C       -2.15585454       2.88116807       1.19848759
C       -1.35263553       2.09122007       0.38813747
C       -0.88302507       0.88302507       0.88302507
C       -1.21130198       0.45959731       2.17773426
C       -1.92778599      -0.35889139       4.94074244
O       -1.04939789      -1.13771025       4.57992784
N       -0.88977235      -3.37092944       6.25235608
C        0.21659487      -3.59434883       7.09688610
C        0.14573128      -4.26751161       8.31845667
C        1.29396128      -4.44945276       9.09764710
C        2.51871757      -3.95942063       8.65436802
C        2.60556584      -3.28316412       7.44107731
C        1.45569973      -3.10006069       6.66672795
H       -3.85543696      -4.10295804       5.17463538
H       -2.61362729      -3.12801097       4.41779774
H       -2.60758720       1.28521925       7.21100519
H       -4.28658368       0.75832162       6.92921962
H       -3.11500753       3.13513046       3.06413109
H       -2.53804877       3.83018860       0.82814007
H       -1.10462584       2.42149116      -0.61677285
H       -0.81983700      -0.50219271       2.48872153
H       -0.69702428      -2.82686739       5.41006163
H       -0.78875580      -4.66750022       8.69959040
H        1.21498605      -4.97747249      10.04456405
H        3.55835251      -2.89849784       7.08735001
H        1.54492830      -2.56975875       5.72112099
C        3.70074759      -4.15503023       9.45320587
C        4.69069774      -4.31885326      10.12223257
Br       6.29136339      -4.58374126      11.20399216
O        8.75591894       1.80948633      -1.18331128
C        7.55763965       1.63184617      -0.98462084
C        6.89120521       0.31663051      -1.36147680
S        7.27586852      -1.00506449      -0.15679059
C        6.64359288      -0.26826799       1.40072562
H        7.17137787       0.65975133       1.63368430
C        6.76063353      -1.23364830       2.55444577
C        5.41125084      -1.88314739       2.61002870
O        5.22922428      -2.89686426       3.27036327
N        4.50551886      -1.12010760       1.89698815
C        3.09903636      -1.38900120       1.79572823
C        2.49984620      -2.46855620       2.46960266
C        1.13127337      -2.75063103       2.35360580
C        0.31814653      -1.95529034       1.55855621
C        0.88302507      -0.88302507       0.88302507
C        2.25123233      -0.60233826       0.99506296
C        5.15343785      -0.05418537       1.30201383
O        4.68673100       0.93028734       0.73517182
N        6.68610635       2.52854099      -0.38636638
C        6.98465151       3.81232015       0.11361105
C        8.25005222       4.40036020       0.05552176
C        8.46264672       5.68269000       0.57427634
C        7.40693806       6.38206024       1.15135200
C        6.14068436       5.80866341       1.22032640
C        5.93259063       4.52583223       0.70420913
H        7.28025055       0.01363286      -2.33950339
H        5.80994336       0.42431839      -1.48221090
H        6.90786568      -0.69649056       3.49945540
H        7.55622239      -1.97602664       2.44187589
H        3.06588799      -3.13854254       3.10983854
H        0.70904906      -3.59890140       2.88842698
H       -0.74130475      -2.17963717       1.47101172
H        2.62256905       0.24224680       0.42604357
H        5.72742368       2.21051705      -0.23668811
H        9.09962552       3.89059013      -0.38818942
H        9.45587166       6.12077477       0.51700863
H        5.31084858       6.34864966       1.66830074
H        4.93532727       4.09585246       0.76695914
C        7.62539582       7.70482874       1.67686097
C        7.80835420       8.81264737       2.11697474
Br       8.10418242      10.60389639       2.82860147
