186
Properties=species:S:1:pos:R:3 pbc="F F F"
O        5.37307354      -3.94356278      -7.06332264
C        4.69991304      -3.29591354      -6.26688522
C        5.35923362      -2.53929380      -5.12287016
S        6.14493985      -0.99172947      -5.70064410
C        4.71369519      -0.11730474      -6.44590810
H        4.29466489      -0.69384111      -7.27419913
C        5.09652594       1.26365695      -6.91825678
C        4.71648766       2.14799656      -5.76965478
O        5.11370007       3.30356084      -5.70890297
N        3.84940499       1.46799985      -4.93492183
C        3.21318397       2.02528744      -3.77500644
C        3.39730416       3.36886572      -3.40154724
C        2.79866050       3.91113225      -2.25542953
C        1.99231545       3.12188086      -1.44750883
C        1.79292909       1.79292909      -1.79292909
C        2.39365315       1.24879480      -2.93589767
C        3.67886291       0.17326901      -5.38721720
O        2.87385423      -0.68280962      -5.03028294
N        3.32438663      -3.12855614      -6.30508056
C        2.42128601      -3.65594520      -7.25031367
C        2.79473382      -4.47662404      -8.31681608
C        1.83375183      -4.96123764      -9.21143094
C        0.49382099      -4.62716235      -9.03928325
C        0.10574718      -3.80737385      -7.98368609
C        1.06897714      -3.32204899      -7.09375145
H        6.13853833      -3.18366185      -4.70194989
H        4.65877357      -2.33445526      -4.30880783
H        4.48906236       1.56342727      -7.78103409
H        6.15420249       1.37516318      -7.17447132
H        4.01337825       4.05187753      -3.97872537
H        2.97137928       4.95460963      -2.00010060
H        1.53243673       3.54695063      -0.55966886
H        2.20367566       0.19987076      -3.13253148
H        2.91507483      -2.50918435      -5.60404011
H        3.82814440      -4.76316055      -8.48557419
H        2.14757201      -5.59937345     -10.03361902
H       -0.93864300      -3.54283625      -7.84169098
H        0.74505371      -2.68361612      -6.27470843
C       -0.49480612      -5.13367010      -9.95561634
C       -1.32278133      -5.55787034     -10.72304531
Br      -2.66154720      -6.24376626     -11.96391303
O       -8.17551901      -3.86153972       3.54422533
C       -7.21937499      -3.38840987       2.93690013
C       -6.09492665      -4.28234377       2.43446044
S       -6.58296927      -5.20019721       0.92931200
C       -7.00767711      -3.82504280      -0.20957865
H       -7.83348875      -3.23110680       0.18957264
C       -7.35614613      -4.33664961      -1.58564393
C       -6.06602116      -4.22781807      -2.34029977
O       -5.92033382      -4.78732709      -3.41850298
N       -5.20779676      -3.38296457      -1.66156533
C       -3.91076714      -2.97802042      -2.12469030
C       -3.40495815      -3.39280259      -3.36995639
C       -2.12858714      -3.02098569      -3.81564944
C       -1.31859921      -2.21722698      -3.02587895
C       -1.79292909      -1.79292909      -1.79292909
C       -3.06672611      -2.16691447      -1.34470505
C       -5.78698027      -2.97870141      -0.47366743
O       -5.42848002      -2.11163304       0.31878550
N       -7.04381008      -2.05565392       2.59855294
C       -7.91072536      -0.97865083       2.87372171
C       -9.11146033      -1.09998092       3.57651539
C       -9.91529548       0.02170086       3.80964949
C       -9.51761374       1.27036443       3.34130741
C       -8.32565494       1.40752616       2.63606936
C       -7.52664585       0.28410962       2.40185663
H       -5.86942972      -5.00940542       3.22200876
H       -5.17190780      -3.72255399       2.26133565
H       -8.08207229      -3.67603439      -2.07541703
H       -7.74230493      -5.36007054      -1.60146153
H       -3.97461258      -4.02301500      -4.04635357
H       -1.77402535      -3.36807275      -4.78399141
H       -0.32978595      -1.93369264      -3.37557763
H       -3.36186885      -1.80930032      -0.36490872
H       -6.22180331      -1.82611584       2.03798856
H       -9.45707081      -2.05454794       3.96106071
H      -10.84526424      -0.09653990       4.35998655
H       -8.00749876       2.37924075       2.26804628
H       -6.59831629       0.41262102       1.84954925
C      -10.34160037       2.42493540       3.58952484
C      -11.03168918       3.39188860       3.79740694
Br     -12.14750441       4.95537012       4.13353471
O       -4.47925026      -3.74620876       7.75979190
C       -3.92397604      -3.11697794       6.86388662
C       -4.72815395      -2.50914804       5.72380407
S       -5.59224250      -0.98345049       6.24506247
C       -4.18526972       0.05534757       6.80168127
H       -3.65863305      -0.41770856       7.63409842
C       -4.64332254       1.43740108       7.19771605
C       -4.42550694       2.25065350       5.95797856
O       -4.91978948       3.36382801       5.84254639
N       -3.57134188       1.57214089       5.10884390
C       -3.07293615       2.07890684       3.86163488
C       -3.39464536       3.36939284       3.40367892
C       -2.93129973       3.85951385       2.17440870
C       -2.12647884       3.07002571       1.36520059
C       -1.79292909       1.79292909       1.79292909
C       -2.25842759       1.30053540       3.01938263
C       -3.26115614       0.33564321       5.64254977
O       -2.41794492      -0.48329686       5.28667950
N       -2.56793470      -2.84313815       6.77611450
C       -1.55542873      -3.22100830       7.68123405
C       -1.77815706      -3.97724538       8.83401417
C       -0.71548943      -4.31237494       9.68083064
C        0.57551683      -3.89284878       9.37430750
C        0.81368017      -3.13549036       8.23122995
C       -0.25092458      -2.79944003       7.38919506
H       -5.48156598      -3.24320366       5.41846406
H       -4.11070358      -2.31932539       4.84174796
H       -3.99882351       1.85228700       7.98241321
H       -5.68407885       1.48898930       7.53076884
H       -4.01917166       4.04878851       3.97602098
H       -3.20805456       4.86235426       1.85568069
H       -1.77179559       3.45437657       0.41288406
H       -1.96852941       0.28876938       3.27877910
H       -2.26528979      -2.25419313       5.99883392
H       -2.76873013      -4.32654657       9.10837448
H       -0.91250578      -4.90276434      10.57207615
H        1.81900272      -2.80501763       7.98423209
H       -0.04365409      -2.20773022       6.50022215
C        1.66910341      -4.24585242      10.24209596
C        2.58498218      -4.54149297      10.96886879
Br       4.06588068      -5.01951875      12.14399900
O        8.73554342      -2.87639085      -3.11910086
C        7.69667822      -2.53532721      -2.56112071
C        6.61744486      -3.55615141      -2.23078629
S        7.06168563      -4.55911655      -0.76694769
C        7.27359781      -3.25832932       0.51037142
H        8.07402574      -2.56815664       0.23284053
C        7.55433088      -3.85780955       1.86629924
C        6.20362233      -3.91788163       2.51263503
O        6.02151204      -4.57849975       3.52615210
N        5.33225650      -3.08848205       1.83158812
C        3.97226862      -2.82979779       2.21141145
C        3.40669379      -3.38985532       3.37116802
C        2.07147912      -3.16091238       3.73283077
C        1.26042006      -2.35886156       2.94242353
C        1.79292909      -1.79292909       1.79292909
C        3.12597713      -2.02401127       1.42835723
C        5.96703669      -2.53799388       0.73431854
O        5.59905802      -1.63687191      -0.01460237
N        7.37993890      -1.25512581      -2.13415366
C        8.16946572      -0.09270714      -2.24651838
C        9.42835626      -0.05666040      -2.85009080
C       10.14802255       1.14146013      -2.92261729
C        9.60763724       2.30919818      -2.39249716
C        8.35589587       2.28936053      -1.78447592
C        7.64108643       1.08980834      -1.71059848
H        6.51923289      -4.22791080      -3.09031732
H        5.63856028      -3.08878200      -2.09421614
H        8.17897315      -3.18637440       2.46817616
H        8.02519155      -4.84472448       1.83392096
H        3.97308958      -4.02889263       4.04199894
H        1.67229891      -3.61770941       4.63608120
H        0.22605935      -2.18636388       3.22663300
H        3.46615189      -1.56050197       0.50942403
H        6.49910333      -1.14122457      -1.63039730
H        9.88488254      -0.94375215      -3.27807665
H       11.12561490       1.14579806      -3.39799926
H        7.92646413       3.19709902      -1.36915338
H        6.66407530       1.09562962      -1.23229967
C       10.34566788       3.54289126      -2.47563650
C       10.96376855       4.57610922      -2.54526569
Br      11.96318505       6.24673527      -2.65785021
C       -0.00445707       0.01189536      -1.78238275
H       -0.66409135       0.67374010      -2.43557963
H        0.65740317      -0.63156657      -2.45157240
C       -0.90989263      -0.90692880      -0.91072765
C        0.90977584       0.90977584      -0.90977584
C       -0.00465871       1.77757030       0.00794375
H       -0.66225468       2.44313916      -0.64384735
H        0.64322798       2.43503045       0.67728295
C       -1.78241447       0.00034974      -0.00472694
H       -2.45427497      -0.65498947       0.64260836
H       -2.43311707       0.67328779      -0.65473579
C       -0.91132561       0.90220522       0.91563759
C       -0.01476271      -0.02253852       1.78660255
H       -0.67934791      -0.69751639       2.42135241
H        0.63392994       0.61504881       2.47327442
C        0.01484550      -1.77751727      -0.01636693
H        0.67870853      -2.42144646      -0.68295456
H       -0.62264859      -2.45592969       0.64226336
C        1.78714474       0.01002794       0.00389507
H        2.44202412       0.67113390       0.66197326
H        2.45385902      -0.65136977      -0.64189061
C        0.91606151      -0.90478549       0.90901405
