157
Properties=species:S:1:pos:R:3 pbc="F F F"
C        0.00000000       0.00000000       0.00000000
C        0.88135571       0.88135571      -0.88135571
C        1.17194511       0.48679790      -2.18405489
C        1.98728601       1.29250455      -2.98381249
C        2.51368109       2.49673661      -2.48883021
C        2.20270911       2.88660102      -1.18011015
C        1.39131638       2.07608438      -0.37676645
C        3.39472005       3.30210322      -3.39266885
O        3.64197942       2.86887734      -4.51796455
C        3.92871578       4.64715134      -2.92024716
C        5.16272607       5.11436258      -3.71934101
C        5.47633268       6.58483982      -3.42446289
C        6.40391213       4.21501991      -3.53494859
C        6.93616943       4.06631186      -2.11339156
O        6.45766989       4.66755342      -1.15450498
C        8.08465529       3.13526747      -1.87718935
C        8.74280626       2.47229888      -2.92084934
C        9.80080510       1.59976780      -2.64673163
C       10.20379338       1.38734258      -1.32918138
C        9.56356915       2.04413943      -0.28192804
C        8.50697704       2.91757330      -0.55584509
H        0.77543018      -0.44151879      -2.58729671
H        2.21040549       0.97248883      -4.00072241
H        2.57780340       3.80994438      -0.74931553
H        1.16648236       2.38637202       0.64107281
H        4.17477826       4.60742696      -1.85960430
H        3.11363602       5.36975510      -3.04902949
H        4.90727558       5.06896107      -4.78821764
H        5.69179757       6.75775353      -2.36663089
H        4.62639308       7.21962528      -3.69778887
H        6.33975750       6.92131740      -4.00831905
H        7.21469103       4.61922642      -4.15347964
H        6.16588675       3.21148184      -3.90551088
H        8.45463329       2.61471799      -3.95898435
H       10.30092547       1.08972202      -3.46646838
H        9.87325206       1.88411728       0.74799938
H        8.01191804       3.42513020       0.27067488
C       11.28736481       0.48075161      -1.05067506
C       12.19485588      -0.27851833      -0.81742603
Br      13.66219219      -1.50619360      -0.44028207
C       -0.88135571      -0.88135571      -0.88135571
C       -0.45576378      -2.16085132      -1.22618280
C       -1.26196876      -2.96031291      -2.04132138
C       -2.49753291      -2.48830703      -2.51340798
C       -2.91796525      -1.20328375      -2.14817127
C       -2.10719539      -0.39996023      -1.33701160
C       -3.30226160      -3.38967329      -3.39755723
O       -2.84220012      -4.49205248      -3.69456871
C       -4.67803750      -2.94452445      -3.87355233
C       -5.15966240      -3.71924175      -5.11752551
C       -6.64804081      -3.46242509      -5.37516948
C       -4.30718635      -3.46701672      -6.37967755
C       -4.22042282      -2.02540402      -6.87004600
O       -4.83562799      -1.10195240      -6.34214789
C       -3.33490118      -1.72330195      -8.03890899
C       -2.66118861      -2.72381086      -8.75095501
C       -1.83238080      -2.38856246      -9.82636128
C       -1.67452023      -1.05284125     -10.19295586
C       -2.34276018      -0.04798088      -9.49889556
C       -3.17252170      -0.38301394      -8.42485979
H        0.49708544      -2.54606845      -0.87222509
H       -0.91761907      -3.95883739      -2.30716028
H       -3.86601668      -0.79105239      -2.47999424
H       -2.44180052       0.59975374      -1.06973480
H       -4.67956913      -1.87595903      -4.08628137
H       -5.36948895      -3.12211692      -3.04081474
H       -5.07252936      -4.79357170      -4.89835323
H       -6.86091610      -2.40450919      -5.55075670
H       -7.24610338      -3.78266493      -4.51503891
H       -6.99381821      -4.02950998      -6.24606576
H       -4.71783287      -4.07258387      -7.19698034
H       -3.28534637      -3.81218419      -6.18534892
H       -2.76159009      -3.77453530      -8.49221024
H       -1.31334097      -3.17527941     -10.36849549
H       -2.22521244       0.99578840      -9.77994593
H       -3.68945165       0.41071858      -7.88764029
C       -0.81265238      -0.71130460     -11.29483450
C       -0.09083806      -0.42526766     -12.21765786
Br       1.07627464       0.03722989     -13.70978519
C       -0.88135571       0.88135571       0.88135571
C       -1.35977643       0.39038396       2.09263751
C       -2.17431333       1.19781932       2.89147040
C       -2.51256245       2.49951252       2.48717295
C       -2.01379560       2.98411526       1.27150941
C       -1.20324233       2.17275534       0.46816954
C       -3.40406440       3.30343613       3.38199159
O       -3.82318031       2.78761004       4.41803095
C       -3.73786146       4.74278578       3.01546703
C       -5.00094289       5.26426857       3.73121820
C       -5.12455735       6.78369591       3.57738213
C       -6.29884160       4.53830604       3.31673299
C       -6.67577823       4.59996361       1.84013100
O       -6.03006772       5.23783664       1.01182392
C       -7.87939133       3.83733107       1.38038972
C       -8.71876093       3.15046710       2.26672645
C       -9.82254741       2.43910626       1.78565086
C      -10.09038912       2.41212066       0.41780756
C       -9.26895259       3.09533077      -0.47464674
C       -8.16643924       3.80776678       0.00618940
H       -1.11069108      -0.61423392       2.42475094
H       -2.54534543       0.80225677       3.83601453
H       -2.23905023       3.98419518       0.91381791
H       -0.83141543       2.55860554      -0.47823940
H       -3.86249630       4.84170058       1.93761265
H       -2.87277104       5.34913856       3.31051101
H       -4.87679150       5.07932135       4.80834143
H       -5.19729185       7.08884936       2.53004078
H       -4.25081621       7.28431160       4.00867941
H       -6.01019101       7.15547170       4.10373124
H       -7.12946646       4.96732067       3.89060996
H       -6.21033358       3.48107158       3.59147430
H       -8.53930038       3.15046689       3.33856835
H      -10.46410368       1.90821913       2.48479306
H       -9.47243228       3.07957738      -1.54263969
H       -7.52935676       4.33748174      -0.70046514
C      -11.22245519       1.67052105      -0.07418476
C      -12.17056053       1.04943139      -0.48622833
Br     -13.70356666       0.04518192      -1.15246793
C        0.88135571      -0.88135571       0.88135571
C        0.55120266      -2.21999241       1.07160283
C        1.35598923      -3.02036104       1.88725278
C        2.49527496      -2.48989582       2.51407713
C        2.82155841      -1.14428223       2.30357963
C        2.01153154      -0.34085946       1.49177621
C        3.30230596      -3.39801911       3.38916705
O        2.92525841      -4.55945869       3.54410421
C        4.58285153      -2.88237636       4.03088639
C        5.02614937      -3.72724804       5.24303225
C        6.45526523      -3.36778817       5.66258199
C        4.04710085      -3.67139480       6.43538499
C        3.78116646      -2.29604860       7.03865778
O        4.34916404      -1.27657569       6.65398855
C        2.77270387      -2.18472166       8.13968658
C        2.13802518      -3.30322927       8.69470004
C        1.19076685      -3.14520474       9.71133293
C        0.87516739      -1.86925671      10.17589324
C        1.50244199      -0.74862227       9.63857235
C        2.45050648      -0.90648090       8.62340806
H       -0.32625619      -2.65107820       0.59638609
H        1.08650619      -4.06578990       2.03132064
H        3.69361013      -0.68471656       2.75873663
H        2.27136299       0.70503922       1.34545780
H        4.46412512      -1.84285273       4.33483167
H        5.35780075      -2.91910489       3.25551498
H        5.06109745      -4.77931221       4.92404463
H        6.55036035      -2.31692490       5.94889674
H        7.15356952      -3.55147947       4.83875823
H        6.77649171      -3.98303458       6.50986766
H        4.44097654      -4.31406222       7.23235833
H        3.08354305      -4.08396136       6.11537506
H        2.36013332      -4.31182185       8.35638046
H        0.70387372      -4.02208406      10.13115809
H        1.26205492       0.24945917       9.99677422
H        2.93421220      -0.02329592       8.20886524
C       -0.10777408      -1.71038995      11.21617562
C       -0.93098756      -1.57733903      12.08741211
Br      -2.26205413      -1.36220696      13.49612783
