178
Properties=species:S:1:pos:R:3 pbc="F F F"
C        1.79125974       1.79125974      -1.79125974
C        2.08184913       1.39670192      -3.09395892
C        2.89719004       2.20240857      -3.89371651
C        3.42358511       3.40664064      -3.39873423
C        3.11261313       3.79650504      -2.09001418
C        2.30122041       2.98598840      -1.28667047
C        4.30462407       4.21200725      -4.30257288
O        4.55188345       3.77878136      -5.42786857
C        4.83861980       5.55705536      -3.83015119
C        6.07263009       6.02426661      -4.62924503
C        6.38623670       7.49474384      -4.33436692
C        7.31381615       5.12492393      -4.44485262
C        7.84607345       4.97621588      -3.02329558
O        7.36757391       5.57745744      -2.06440900
C        8.99455932       4.04517150      -2.78709337
C        9.65271029       3.38220290      -3.83075336
C       10.71070912       2.50967182      -3.55663566
C       11.11369740       2.29724661      -2.23908540
C       10.47347317       2.95404345      -1.19183207
C        9.41688106       3.82747733      -1.46574911
H        1.68533420       0.46838523      -3.49720074
H        3.12030952       1.88239285      -4.91062643
H        3.48770742       4.71984841      -1.65921956
H        2.07638639       3.29627604      -0.26883122
H        5.08468229       5.51733098      -2.76950832
H        4.02354005       6.27965913      -3.95893351
H        5.81717960       5.97886509      -5.69812166
H        6.60170160       7.66765756      -3.27653491
H        5.53629710       8.12952930      -4.60769289
H        7.24966152       7.83122142      -4.91822308
H        8.12459505       5.52913044      -5.06338367
H        7.07579077       4.12138586      -4.81541491
H        9.36453732       3.52462201      -4.86888837
H       11.21082949       1.99962604      -4.37637240
H       10.78315609       2.79402130      -0.16190465
H        8.92182207       4.33503422      -0.63922914
C       12.19726883       1.39065563      -1.96057909
C       13.10475991       0.63138570      -1.72733005
Br      14.57209622      -0.59628958      -1.35018609
C       -1.79125974      -1.79125974      -1.79125974
C       -1.31367108      -3.01930976      -2.23952913
C       -2.12082838      -3.81827209      -3.05421465
C       -3.40896749      -3.39731374      -3.42267875
C       -3.88046769      -2.16463190      -2.95403276
C       -3.06923676      -1.36130392      -2.14333860
C       -4.21297772      -4.29366697      -4.31255951
O       -3.70845476      -5.34590679      -4.70417184
C       -5.63948239      -3.90797653      -4.67836743
C       -6.15142893      -4.63690246      -5.93781034
C       -7.66546756      -4.45867861      -6.09120129
C       -5.39553841      -4.25844033      -7.22961396
C       -5.42421390      -2.78794678      -7.63342424
O       -6.05842626      -1.93719009      -7.01382401
C       -4.63251039      -2.36320297      -8.83111083
C       -3.94696243      -3.27628647      -9.64241766
C       -3.20788420      -2.82753438     -10.74159802
C       -3.15179823      -1.46537271     -11.03285848
C       -3.83326985      -0.54655768     -10.23952116
C       -4.57339632      -0.99507427      -9.14163691
H       -0.31966258      -3.36448900      -1.96676859
H       -1.73574149      -4.77607840      -3.40150891
H       -4.86990101      -1.79353685      -3.20333753
H       -3.44459500      -0.40178949      -1.79510915
H       -5.71694398      -2.83094956      -4.82362806
H       -6.26607989      -4.17685658      -3.81919621
H       -5.98794032      -5.71471566      -5.79151038
H       -7.95055786      -3.40761258      -6.18772363
H       -8.18894452      -4.86546895      -5.21910583
H       -8.03099193      -4.99415034      -6.97396375
H       -5.82009649      -4.83943964      -8.05757304
H       -4.34509025      -4.55005389      -7.11744740
H       -3.96923849      -4.34458995      -9.44421926
H       -2.67839185      -3.54721655     -11.36121954
H       -3.79489265       0.51719314     -10.46138253
H       -5.10150435      -0.26798250      -8.52659858
C       -2.38180000      -1.00674224     -12.15996132
C       -1.73692648      -0.62263922     -13.10390995
Br      -0.69422055      -0.00157713     -14.63019505
C       -1.79125974       1.79125974       1.79125974
C       -3.06397730       2.15087459       1.35765808
C       -3.86336229       2.96595378       2.16399905
C       -3.39807472       3.42323048       3.40765478
C       -2.11996115       3.04320396       3.83596724
C       -1.31664043       2.23210915       3.02512971
C       -4.29874820       4.30821516       4.21224084
O       -5.39447526       4.61877342       3.74528470
C       -3.86150270       4.76842366       5.59589999
C       -4.62961774       6.01489141       6.08163258
C       -4.38355537       6.25743302       7.57435907
C       -4.35909513       7.28211072       5.24238686
C       -2.91260272       7.76063955       5.17234265
O       -1.99913347       7.21943075       5.79087614
C       -2.59272432       8.93442778       4.29967209
C       -3.58114619       9.66094657       3.62357380
C       -3.22942441      10.74050699       2.80708520
C       -1.88926487      11.09680690       2.66395764
C       -0.89628899      10.38828182       3.33477789
C       -1.24779191       9.31008169       4.15223390
H       -3.44392451       1.80852199       0.39847367
H       -4.85651898       3.24343880       1.81337103
H       -1.71315101       3.36322969       4.79039469
H       -0.32222190       1.95326009       3.36601166
H       -2.79119475       4.97181983       5.60850702
H       -4.05228987       3.93132662       6.27851620
H       -5.70500010       5.80584155       5.98332471
H       -3.32605682       6.42195866       7.79787858
H       -4.71640252       5.39499313       8.16212365
H       -4.94609104       7.13021668       7.92279830
H       -4.96113756       8.10108006       5.65489154
H       -4.69701716       7.09962199       4.21595239
H       -4.63489919       9.41050296       3.71264555
H       -4.00688367      11.29393027       2.28601400
H        0.15085119      10.66123791       3.22869532
H       -0.46325682       8.76152989       4.67129872
C       -1.53073899      12.20306831       1.81469626
C       -1.23047356      13.12956224       1.10343986
Br      -0.74496975      14.62762456      -0.04660158
C        1.79125974      -1.79125974       1.79125974
C        2.07307988      -3.09746445       1.40196564
C        2.87261602      -3.90354003       2.21715907
C        3.39713279      -3.40930861       3.42251859
C        3.11487418      -2.08911032       3.79514785
C        2.30840677      -1.28379771       2.98167481
C        4.23040126      -4.33224360       4.25655933
O        4.40205650      -5.48776222       3.86871467
C        4.87559356      -3.81537084       5.53486194
C        5.27527905      -4.94798783       6.50287485
C        6.18248639      -4.41581654       7.61704452
C        4.07619575      -5.73909835       7.06829860
C        3.04304280      -4.94331744       7.85922468
O        3.16460475      -3.74455498       8.10028062
C        1.82093927      -5.65476344       8.35112147
C        1.63849894      -7.03445162       8.19271599
C        0.47123141      -7.64988894       8.65589625
C       -0.51672844      -6.88837320       9.27838465
C       -0.34671171      -5.51722430       9.44883610
C        0.82071915      -4.90208336       8.98730499
H        1.67721178      -3.50044769       0.47326070
H        3.08429376      -4.92502381       1.90401124
H        3.49908563      -1.65467109       4.71301866
H        2.08909879      -0.26374940       3.28864545
H        4.20868774      -3.11968903       6.04314483
H        5.77132593      -3.26025234       5.23055442
H        5.88225127      -5.67210912       5.93980596
H        5.69464928      -3.63913103       8.21211376
H        7.09589329      -3.98424096       7.19338505
H        6.48271494      -5.22481163       8.29157946
H        4.46477104      -6.52640620       7.72593192
H        3.55369801      -6.22337908       6.23551445
H        2.38796405      -7.65778857       7.71229508
H        0.34167880      -8.72133882       8.52381032
H       -1.11255273      -4.91723989       9.93439488
H        0.94314061      -3.82872425       9.12422057
C       -1.72127628      -7.52454750       9.74523234
C       -2.73008510      -8.05734347      10.13621728
Br      -4.36124363      -8.91882950      10.76840686
C       -0.00445707       0.01189536      -1.78238275
H       -0.66409135       0.67374010      -2.43557963
H        0.65740317      -0.63156657      -2.45157240
C       -0.90989263      -0.90692880      -0.91072765
C        0.90977584       0.90977584      -0.90977584
C       -0.00465871       1.77757030       0.00794375
H       -0.66225468       2.44313916      -0.64384735
H        0.64322798       2.43503045       0.67728295
C       -1.78241447       0.00034974      -0.00472694
H       -2.45427497      -0.65498947       0.64260836
H       -2.43311707       0.67328779      -0.65473579
C       -0.91132561       0.90220522       0.91563759
C       -0.01476271      -0.02253852       1.78660255
H       -0.67934791      -0.69751639       2.42135241
H        0.63392994       0.61504881       2.47327442
C        0.01484550      -1.77751727      -0.01636693
H        0.67870853      -2.42144646      -0.68295456
H       -0.62264859      -2.45592969       0.64226336
C        1.78714474       0.01002794       0.00389507
H        2.44202412       0.67113390       0.66197326
H        2.45385902      -0.65136977      -0.64189061
C        0.91606151      -0.90478549       0.90901405
