161
Properties=species:S:1:pos:R:3 pbc="F F F"
C        0.00000000       0.00000000       0.00000000
C        3.83955681       0.47035572      -5.89835182
C        4.22427679       1.92664455      -5.65709766
N        5.16886338       2.10576481      -4.53669280
C        4.78500909       3.00065253      -3.42937298
N        3.35069613       3.32455586      -3.31946356
C        3.01144635       4.73645477      -3.59238222
C        1.97952961       4.88024273      -4.70376984
C        2.53364144       2.52749736      -2.50956969
C        1.34175078       3.00352581      -1.92951168
C        0.52575686       2.19890342      -1.12028421
C        0.88117280       0.88117280      -0.88117280
C        2.03563886       0.36267557      -1.44955755
C        2.84398403       1.17890733      -2.25358527
C        6.54047688       2.02041848      -4.85956137
C        7.03650485       0.96468020      -5.64875608
C        8.38394492       0.86572873      -6.02380275
C        9.28822642       1.82585062      -5.60028960
Br      11.10218846       1.71128197      -6.10973093
C        8.85480974       2.86589448      -4.79211962
C        7.50472536       2.94977532      -4.42082243
H        3.93800908      -0.14548504      -5.00012046
H        4.44548165       0.02877276      -6.69521592
H        2.80240766       0.40697147      -6.24558094
H        3.28444893       2.44099971      -5.46549330
H        4.61152823       2.38344267      -6.57668846
H        5.31182191       3.95175922      -3.52985947
H        5.15404311       2.58022413      -2.48308101
H        3.89787139       5.28959333      -3.92917814
H        2.69047734       5.25724577      -2.68221751
H        2.26954221       4.32374348      -5.59854590
H        1.88785486       5.93432195      -4.98958482
H        0.99163349       4.53051114      -4.39459106
H        1.01124000       4.02665826      -2.08035582
H       -0.37782616       2.62098890      -0.68626166
H        2.32390574      -0.67093767      -1.28370288
H        3.72704221       0.72262196      -2.69230027
H        6.38632980       0.15997983      -5.96964489
H        8.70583176       0.02922358      -6.63868524
H        9.55339922       3.62292536      -4.44416349
H        7.24970086       3.79882318      -3.79621933
C       -4.63038692      -0.26335523      -5.31452219
C       -4.76818464      -1.78152585      -5.25830851
N       -5.48822511      -2.26110637      -4.06198950
C       -4.81346520      -3.22661128      -3.17495812
N       -3.34929792      -3.32942644      -3.31599119
C       -2.86749254      -4.61811355      -3.85467725
C       -2.01633610      -4.44150811      -5.10569796
C       -2.53064261      -2.53093760      -2.50912827
C       -1.20756179      -2.88566452      -2.18156195
C       -0.39108762      -2.07985908      -1.37399779
C       -0.88117280      -0.88117280      -0.88117280
C       -2.17163092      -0.48055701      -1.19568404
C       -2.97820500      -1.29720448      -2.00106714
C       -6.89235522      -2.35228043      -4.17582107
C       -7.64807290      -1.29107690      -4.71079132
C       -9.03876513      -1.35793375      -4.87677752
C       -9.72347269      -2.49897722      -4.49191673
Br     -11.59382929      -2.60658359      -4.72278848
C       -9.02808876      -3.55743387      -3.92730121
C       -7.63747753      -3.47490750      -3.76293809
H       -4.66777139       0.19974239      -4.32461551
H       -5.41050238       0.18096201      -5.93992996
H       -3.68058134       0.01177526      -5.78615400
H       -3.74825868      -2.16065410      -5.28202917
H       -5.23085436      -2.16372972      -6.17707528
H       -5.21402464      -4.22670611      -3.35270985
H       -5.08089007      -3.00432715      -2.13213103
H       -3.71192478      -5.25412582      -4.15059226
H       -2.33700060      -5.20088769      -3.09205233
H       -2.51900816      -3.82099627      -5.85182716
H       -1.82771128      -5.41813309      -5.56591727
H       -1.04920593      -3.98436326      -4.88316651
H       -0.76815534      -3.81243613      -2.53766262
H        0.61943534      -2.40782850      -1.14103125
H       -2.56878199       0.46114322      -0.82903218
H       -3.97410394      -0.93188168      -2.23597881
H       -7.17407795      -0.35660849      -4.98526808
H       -9.56634376      -0.50717588      -5.30022094
H       -9.55163407      -4.45674094      -3.61211306
H       -7.17199139      -4.34993186      -3.32282011
C       -2.39455448       6.50426355       1.30944632
C       -3.25483054       6.06360140       2.48958706
N       -2.46728242       5.66950731       3.67453126
C       -2.66396976       4.31875744       4.23230740
N       -3.31331982       3.33513602       3.34625971
C       -4.65753321       2.90215264       3.78059749
C       -5.71605035       3.13698914       2.71050269
C       -2.51558295       2.51714189       2.53798365
C       -2.94308369       1.25804812       2.07365646
C       -2.13956885       0.44358798       1.26178766
C       -0.88117280       0.88117280       0.88117280
C       -0.42664899       2.12423179       1.29699120
C       -1.23865471       2.92672458       2.11109734
C       -2.13926337       6.70505799       4.57613537
C       -1.60667648       7.92556675       4.11769790
C       -1.30491586       8.99214867       4.97641186
C       -1.51609470       8.85926415       6.33900779
Br      -1.12668378      10.29261370       7.50390388
C       -2.00596523       7.66394562       6.84291299
C       -2.29908722       6.60362669       5.97260920
H       -1.39228931       6.06757997       1.33277522
H       -2.30226269       7.59390064       1.27330699
H       -2.87217897       6.21632475       0.36645635
H       -3.84593196       5.23005482       2.11495517
H       -3.99052784       6.83708349       2.74404803
H       -3.28016106       4.38176616       5.13151338
H       -1.69797171       3.93226498       4.58711155
H       -4.98348677       3.47396289       4.65919320
H       -4.65610822       1.85799821       4.11583420
H       -5.69150034       4.16366615       2.33666510
H       -6.71307097       2.96629738       3.13239328
H       -5.59419558       2.46466588       1.85787423
H       -3.91841064       0.86133440       2.33850905
H       -2.51381324      -0.52624728       0.94185845
H        0.55144621       2.48938225       0.99873491
H       -0.84736609       3.89979282       2.39480553
H       -1.37612782       8.07049975       3.06932695
H       -0.90004061       9.91177371       4.56192627
H       -2.16933816       7.54041404       7.91073588
H       -2.68668187       5.70956347       6.44849802
C        2.84892415      -6.37760193       0.98173827
C        3.56729826      -5.97493195       2.26578879
N        2.65366585      -5.75349973       3.40415540
C        2.68314704      -4.44621571       4.08567185
N        3.31257105      -3.33790778       3.34423672
C        4.57293456      -2.83696255       3.93038622
C        5.73199859      -2.88839343       2.94315016
C        2.51389215      -2.51912404       2.53769230
C        2.86413218      -1.19301117       2.21764491
C        2.06032555      -0.37788771       1.40673122
C        0.88117280      -0.88117280       0.88117280
C        0.50664241      -2.18925829       1.15197127
C        1.31762998      -2.99200767       1.96683898
C        2.34657093      -6.88849698       4.18538881
C        1.96394552      -8.10276825       3.58322735
C        1.68918139      -9.26260788       4.32168712
C        1.77570016      -9.23471351       5.70395297
Br       1.42156126     -10.79304274       6.70859736
C        2.11445030      -8.05298323       6.34539031
C        2.38214302      -6.89903483       5.59414525
H        1.81322954      -6.02805026       0.95136471
H        2.85723248      -7.46358205       0.84865579
H        3.37444324      -5.96884050       0.11167633
H        4.11048711      -5.06587101       2.01458382
H        4.34566238      -6.70530954       2.52068745
H        3.22699289      -4.53846193       5.02798579
H        1.66084811      -4.17302538       4.38347476
H        4.87563215      -3.45615522       4.78485548
H        4.45121515      -1.83040450       4.34832097
H        5.82953044      -3.87628818       2.48601296
H        6.67207089      -2.67506791       3.46462284
H        5.62083932      -2.15506527       2.14083111
H        3.77538054      -0.74311478       2.59975877
H        2.37164842       0.64388426       1.20166024
H       -0.40743473      -2.60507585       0.73902983
H        0.99263369      -4.01515750       2.13417325
H        1.83360724      -8.17216946       2.51017781
H        1.40296552     -10.17167944       3.79909562
H        2.17842065      -8.01204433       7.43002309
H        2.64846470      -6.02221390       6.17406476
