190
Properties=species:S:1:pos:R:3 pbc="F F F"
C        4.74946084       1.38025974      -6.80825584
C        5.13418081       2.83654858      -6.56700168
N        6.07876740       3.01566883      -5.44659682
C        5.69491312       3.91055655      -4.33927700
N        4.26060016       4.23445988      -4.22936758
C        3.92135037       5.64635879      -4.50228624
C        2.88943363       5.79014675      -5.61367387
C        3.44354547       3.43740138      -3.41947371
C        2.25165480       3.91342984      -2.83941570
C        1.43566088       3.10880744      -2.03018823
C        1.79107682       1.79107682      -1.79107682
C        2.94554288       1.27257959      -2.35946158
C        3.75388806       2.08881135      -3.16348929
C        7.45038090       2.93032250      -5.76946540
C        7.94640887       1.87458423      -6.55866010
C        9.29384894       1.77563276      -6.93370677
C       10.19813045       2.73575464      -6.51019362
C        9.76471376       3.77579850      -5.70202364
C        8.41462938       3.85967934      -5.33072646
H        4.84791310       0.76441899      -5.91002449
H        5.35538567       0.93867678      -7.60511994
H        3.71231168       1.31687550      -7.15548496
H        4.19435296       3.35090374      -6.37539732
H        5.52143225       3.29334670      -7.48659249
H        6.22172594       4.86166324      -4.43976350
H        6.06394713       3.49012815      -3.39298503
H        4.80777542       6.19949735      -4.83908216
H        3.60038136       6.16714980      -3.59212154
H        3.17944624       5.23364750      -6.50844993
H        2.79775889       6.84422598      -5.89948885
H        1.90153752       5.44041517      -5.30449509
H        1.92114403       4.93656229      -2.99025985
H        0.53207786       3.53089293      -1.59616569
H        3.23380976       0.23896635      -2.19360691
H        4.63694624       1.63252598      -3.60220429
H        7.29623382       1.06988386      -6.87954891
H        9.61573578       0.93912761      -7.54858927
H       10.46330325       4.53282938      -5.35406752
H        8.15960488       4.70872721      -4.70612335
C       11.58193828       2.64835425      -6.89882850
C       12.74087733       2.57515643      -7.22431020
Br      14.61478377       2.45680173      -7.75058659
C       -3.27141473      -2.24566795      -7.42089374
C       -4.11969045      -3.43536632      -6.98267430
N       -5.30267827      -3.05088339      -6.18747140
C       -5.46666682      -3.63470237      -4.84337748
N       -4.25983482      -4.22700504      -4.23758777
C       -4.30741788      -5.69403995      -4.06853758
C       -3.14248127      -6.39480789      -4.75596510
C       -3.44715867      -3.43062732      -3.42263458
C       -2.61719503      -3.96780367      -2.41950164
C       -1.80308031      -3.16437710      -1.60719914
C       -1.79107682      -1.79107682      -1.79107682
C       -2.57626363      -1.21953161      -2.78178881
C       -3.38795484      -2.03388824      -3.58434562
C       -6.47473955      -2.75775324      -6.91767601
C       -6.43852906      -1.90397836      -8.03714578
C       -7.57227914      -1.61938436      -8.81152498
C       -8.79435045      -2.17685816      -8.47287010
C       -8.88816500      -2.99620089      -7.35817001
C       -7.74659120      -3.26855605      -6.58988794
H       -3.38142849      -1.38312581      -6.75780228
H       -3.51963418      -1.93832952      -8.44121869
H       -2.21269082      -2.52629783      -7.44568350
H       -3.44671358      -4.06750560      -6.40643483
H       -4.40712832      -4.04684211      -7.84740101
H       -6.21748837      -4.42668252      -4.87898179
H       -5.89694021      -2.87745054      -4.17266956
H       -5.21841295      -6.10668120      -4.52126078
H       -4.37268769      -5.97615780      -3.01080721
H       -3.04129933      -6.08200356      -5.79824077
H       -3.30913069      -7.47804501      -4.75429802
H       -2.19226040      -6.20192900      -4.25225837
H       -2.58386021      -5.03600175      -2.22810420
H       -1.19095040      -3.63004260      -0.83814348
H       -2.57071430      -0.14669423      -2.94897449
H       -3.96973816      -1.54259635      -4.35934200
H       -5.52181888      -1.40209859      -8.32174912
H       -7.48004036      -0.95590042      -9.66751187
H       -9.84156206      -3.43481155      -7.07382653
H       -7.90675028      -3.92558521      -5.74211995
C       -9.96218383      -1.89880041      -9.26813678
C      -10.94024428      -1.66592705      -9.93417263
Br     -12.52168531      -1.28939052     -11.01109627
C       -3.37598089       7.39841219       2.16358334
C       -4.21393818       6.96241119       3.36138170
N       -3.40495877       6.59547792       4.54059637
C       -3.57536240       5.25000477       5.11937951
N       -4.22307645       4.24549075       4.25586042
C       -5.55514333       3.80027869       4.71457338
C       -6.63127772       4.00587969       3.65609684
C       -3.42520342       3.42735492       3.44786223
C       -3.84156283       2.15626461       3.00667290
C       -3.03801064       1.34169119       2.19495473
C       -1.79107682       1.79107682       1.79107682
C       -1.34813868       3.04583362       2.18361175
C       -2.15998445       3.84835720       2.99784705
C       -3.07902042       7.64774994       5.42339844
C       -2.56962922       8.86895278       4.94107120
C       -2.27095697       9.95130038       5.78093112
C       -2.46170379       9.83437854       7.14799638
C       -2.92811524       8.63957075       7.67484992
C       -3.21839482       7.56344258       6.82319777
H       -2.36755708       6.97578294       2.17901656
H       -3.29924361       8.48860230       2.11133649
H       -3.86238270       7.09100251       1.23128694
H       -4.79852158       6.11579837       3.00633406
H       -4.95671126       7.72924159       3.61541859
H       -4.18006129       5.31702520       6.02606618
H       -2.59937746       4.88164004       5.46604282
H       -5.87696495       4.37967320       5.58971678
H       -5.53473597       2.76096877       5.06394796
H       -6.62599936       5.02753626       3.26800804
H       -7.62000820       3.82746656       4.09399895
H       -6.51177504       3.32356995       2.81110278
H       -4.80762170       1.74999920       3.29034527
H       -3.40315101       0.36252405       1.89346142
H       -0.37933121       3.42011819       1.86693362
H       -1.77834099       4.83048873       3.26284679
H       -2.35540307       9.00252323       3.88774029
H       -1.88450039      10.87054361       5.34840866
H       -3.07520888       8.52858115       8.74641011
H       -3.58709072       6.67083953       7.31652519
C       -2.16768656      10.94394066       8.01749380
C       -1.92144713      11.87319894       8.74569789
Br      -1.52329880      13.37573098       9.92314232
C        3.94027625      -7.22004116       1.77765901
C        4.60191042      -6.83786835       3.09795230
N        3.64432320      -6.68545924       4.21125062
C        3.60688598      -5.40185151       4.93600919
N        4.22229527      -4.24886053       4.25327183
C        5.44492616      -3.72695495       4.89811431
C        6.63691610      -3.70662043       3.94971772
C        3.42319123      -3.42983176       3.44739757
C        3.73845924      -2.08279694       3.18324415
C        2.93450146      -1.26744442       2.37271068
C        1.79107682      -1.79107682       1.79107682
C        1.45255250      -3.11922829       2.00580326
C        2.26313221      -3.92211888       2.82093762
C        3.35048062      -7.85586047       4.94382771
C        3.02939503      -9.06087545       4.28938272
C        2.77009906     -10.25357278       4.97951663
C        2.81010285     -10.26988124       6.36409462
C        3.08717723      -9.10015002       7.05520866
C        3.34003067      -7.91313505       6.35186946
H        2.89485096      -6.90391676       1.72358885
H        3.98989246      -8.30000472       1.60928522
H        4.47992314      -6.76485577       0.93989324
H        5.12183253      -5.90341296       2.89540852
H        5.39586153      -7.55049408       3.35501584
H        4.12226323      -5.50815744       5.89273201
H        2.56664351      -5.17272515       5.20769165
H        5.74023892      -4.36456154       5.74155448
H        5.27535730      -2.73974434       5.34455106
H        6.78297922      -4.67465083       3.46391362
H        7.55152544      -3.48034828       4.50959999
H        6.52732933      -2.95047949       3.16863895
H        4.62081416      -1.61642681       3.61072519
H        3.21746590      -0.22960066       2.21206992
H        0.56722684      -3.55060222       1.54855396
H        1.96779787      -4.96050513       2.94337351
H        2.93686107      -9.09798672       3.21081880
H        2.53231625     -11.15326513       4.41787128
H        3.11400471      -9.09404633       8.14214910
H        3.55715279      -7.04826162       6.96904103
C        2.55547130     -11.49230026       7.08134947
C        2.34221737     -12.51607619       7.68205040
Br       1.99740381     -14.17143527       8.65333301
C       -0.00445707       0.01189536      -1.78238275
H       -0.66409135       0.67374010      -2.43557963
H        0.65740317      -0.63156657      -2.45157240
C       -0.90989263      -0.90692880      -0.91072765
C        0.90977584       0.90977584      -0.90977584
C       -0.00465871       1.77757030       0.00794375
H       -0.66225468       2.44313916      -0.64384735
H        0.64322798       2.43503045       0.67728295
C       -1.78241447       0.00034974      -0.00472694
H       -2.45427497      -0.65498947       0.64260836
H       -2.43311707       0.67328779      -0.65473579
C       -0.91132561       0.90220522       0.91563759
C       -0.01476271      -0.02253852       1.78660255
H       -0.67934791      -0.69751639       2.42135241
H        0.63392994       0.61504881       2.47327442
C        0.01484550      -1.77751727      -0.01636693
H        0.67870853      -2.42144646      -0.68295456
H       -0.62264859      -2.45592969       0.64226336
C        1.78714474       0.01002794       0.00389507
H        2.44202412       0.67113390       0.66197326
H        2.45385902      -0.65136977      -0.64189061
C        0.91606151      -0.90478549       0.90901405
