141
Properties=species:S:1:pos:R:3 pbc="F F F"
C        0.00000000       0.00000000       0.00000000
C        0.86729182       0.86729182      -0.86729182
C        1.26316258       2.15022900      -0.56753231
C        2.07828086       2.57376652      -1.64560876
C        2.12177137       1.52726671      -2.54744575
O        1.37246134       0.48220224      -2.06976814
C        2.79558547       1.39565301      -3.82268580
O        3.60096180       2.21813916      -4.24938443
N        2.43998046       0.26460149      -4.52610132
C        2.99271884      -0.06959642      -5.81946360
C        4.11937979      -1.08924547      -5.68647400
C        4.70202027      -1.45663857      -7.05373934
C        5.86080077      -2.44553224      -6.94350899
N        5.43573509      -3.73154608      -6.43972338
C        5.07776212      -4.78366957      -7.25591467
O        5.11564336      -4.71833648      -8.48187716
C        4.66742523      -5.96855330      -6.53083786
C        4.38875101      -7.25115500      -6.96534405
C        4.03646130      -8.00360803      -5.81827839
C        4.10845845      -7.13499999      -4.75385543
Br       3.72678469      -7.57362891      -2.98144492
O        4.49819346      -5.90121476      -5.17081218
H        1.00210075       2.71237184       0.31835838
H        2.57418105       3.52763102      -1.76871974
H        1.78407733      -0.36898600      -4.08260095
H        3.35508971       0.83949233      -6.31148286
H        2.17441333      -0.47872955      -6.42099155
H        3.73478077      -1.98675382      -5.18649315
H        4.91009257      -0.68534922      -5.04202075
H        5.06628910      -0.54631035      -7.54512728
H        3.91320199      -1.87483012      -7.69083193
H        6.63025941      -2.06626554      -6.26317787
H        6.32032828      -2.58034175      -7.92883086
H        5.35470315      -3.87461048      -5.43847363
H        4.44624376      -7.59085830      -7.99096196
H        3.76147982      -9.04843492      -5.77746020
C       -0.86729182      -0.86729182      -0.86729182
C       -1.37835269      -2.09331237      -0.50925884
C       -2.14570268      -2.53866176      -1.61329171
C       -2.04740206      -1.56236795      -2.58671382
O       -1.25691441      -0.53926159      -2.12825572
C       -2.61873488      -1.48016596      -3.91502344
O       -3.45183779      -2.27412402      -4.34252359
N       -2.13094799      -0.43273249      -4.66700279
C       -2.56536430      -0.15882945      -6.01839227
C       -3.61879863       0.94410222      -6.04191192
C       -4.07530614       1.24756345      -7.47137836
C       -5.16141116       2.32043549      -7.51780185
N       -4.67718681       3.60782246      -7.07454804
C       -4.18509705       4.56810941      -7.93301957
O       -4.14208056       4.41369863      -9.15080211
C       -3.73857045       5.77254634      -7.26368568
C       -3.33470465       6.99629739      -7.76453280
C       -3.00785977       7.80632692      -6.64959881
C       -3.21903274       7.02726105      -5.53554221
Br      -2.93019175       7.57003112      -3.77444007
O       -3.67025335       5.79588102      -5.89341856
H       -1.22274128      -2.60419228       0.43081935
H       -2.70202552      -3.46211636      -1.70638993
H       -1.46188942       0.18502164      -4.22082449
H       -2.95973966      -1.07477244      -6.47155279
H       -1.67864507       0.14583417      -6.58386444
H       -3.20373788       1.84757165      -5.57835388
H       -4.48067463       0.64594478      -5.43203425
H       -4.47170662       0.33056746      -7.92396687
H       -3.21475507       1.56062590      -8.07507463
H       -6.00280065       2.04798801      -6.87235910
H       -5.53959094       2.41262585      -8.54185230
H       -4.65575177       3.81966627      -6.08248081
H       -3.29476822       7.26120268      -8.81278188
H       -2.65871377       8.82951032      -6.66130165
C       -0.86729182       0.86729182       0.86729182
C       -2.19772654       0.64536806       1.13782930
C       -2.60366725       1.68936590       2.00462300
C       -1.49853057       2.49553875       2.20241452
O       -0.43459693       1.99165752       1.49817727
C       -1.32609648       3.70029849       2.98752931
O       -2.17740220       4.13082237       3.76026082
N       -0.11907667       4.33280339       2.77880321
C        0.26605682       5.54805443       3.46058841
C        1.17582124       5.24545987       4.64696970
C        1.59710984       6.52911234       5.36711855
C        2.47539513       6.24922369       6.58494897
N        3.74991756       5.67469053       6.21913940
C        4.88732278       6.42596632       6.01136367
O        4.91292576       7.64664149       6.14546830
C        6.04323448       5.63879385       5.63415041
C        7.37393091       5.98568171       5.49118925
C        8.06312238       4.81055698       5.10369706
C        7.11276790       3.81928856       5.02079324
Br       7.44479153       2.05101319       4.52837904
O        5.88643247       4.30592210       5.34830126
H       -2.80236449      -0.16842229       0.76217200
H       -3.58309655       1.85274790       2.43468736
H        0.53087894       3.88979836       2.13877285
H       -0.62964919       6.08449284       3.79192286
H        0.78625900       6.17441010       2.72852424
H        2.06125183       4.70376695       4.29200499
H        0.65982687       4.57812651       5.34846445
H        0.69996694       7.06488103       5.70019195
H        2.12658948       7.18780411       4.66798917
H        1.98289168       5.54582618       7.26423724
H        2.64659035       7.18201542       7.13339232
H        3.82228883       4.67416210       6.06669304
H        7.78506531       6.97226971       5.65914301
H        9.12093966       4.70453981       4.90690494
C        0.86729182      -0.86729182       0.86729182
C        2.13363069      -0.54779332       1.29949988
C        2.56347219      -1.63460642       2.09957753
C        1.53745083      -2.56069597       2.09833703
O        0.49884110      -2.08957861       1.33601201
C        1.42020789      -3.85387427       2.73984212
O        2.23390342      -4.28038425       3.55419773
N        0.31412309      -4.57430788       2.34225229
C       -0.00243316      -5.88738255       2.85763663
C       -1.05016513      -5.80370012       3.96307334
C       -1.39886300      -7.19208476       4.50589929
C       -2.41605594      -7.13119742       5.64363604
N       -3.70344257      -6.64696605       5.20038890
C       -4.72797188      -7.47827237       4.79970673
O       -4.63510134      -8.70298790       4.81129747
C       -5.91974719      -6.77091569       4.37854129
C       -7.18528213      -7.22780022       4.06042197
C       -7.95595577      -6.09022196       3.71686547
C       -7.11412050      -5.00834192       3.83309247
Br      -7.58497098      -3.23795361       3.48161807
O       -5.88014785      -5.40615449       4.24178424
H        2.68085070       0.35642621       1.07168971
H        3.50845079      -1.74753396       2.61454706
H       -0.31455046      -4.13019004       1.68205269
H        0.90937466      -6.36694261       3.22974762
H       -0.37885519      -6.47889022       2.01664031
H       -1.95007949      -5.31540471       3.56919488
H       -0.67934731      -5.16876853       4.77734288
H       -0.48587401      -7.67102976       4.87995029
H       -1.78418224      -7.82002749       3.69335856
H       -2.07020502      -6.46047215       6.43690460
H       -2.53835961      -8.12971307       6.07746394
H       -3.86781442      -5.64760614       5.13877458
H       -7.50232551      -8.26191122       4.08676171
H       -8.99494752      -6.06672868       3.41872394
