93
Properties=species:S:1:pos:R:3 pbc="F F F"
C        0.00000000       0.00000000       0.00000000
C        0.88157907       0.88157907      -0.88157907
C        0.47825521       2.17822772      -1.18697111
C        1.28760430       2.98388481      -1.99417617
C        2.50644551       2.50652270      -2.50646688
C        2.88953066       1.19330104      -2.18297067
C        2.08409688       0.38410904      -1.37538390
C        3.35650048       3.35664223      -3.35658615
C        3.75521160       4.63598816      -2.93214503
C        4.56301129       5.44507372      -3.73763735
C        4.98140039       4.98128019      -4.98157266
C        4.60049390       3.71826117      -5.42616801
C        3.79352746       2.91286135      -4.61647961
H       -0.46082610       2.57211473      -0.80749944
H        0.95161915       3.99132651      -2.23308154
H        3.83245907       0.79273261      -2.55105162
H        2.40668038      -0.62614194      -1.13840321
H        3.44676699       5.00912347      -1.95720614
H        4.85901515       6.42834904      -3.38289577
H        4.92101988       3.35126449      -6.39762782
H        3.49474459       1.93274937      -4.98491954
C        5.81276992       5.81255516      -5.81308131
C        6.50904189       6.50874795      -6.50946980
Br       7.63485479       7.63443281      -7.63547110
C       -0.88157907      -0.88157907      -0.88157907
C       -0.53346613      -1.09834848      -2.21163943
C       -1.34220283      -1.90653652      -3.01692593
C       -2.50643921      -2.50647699      -2.50651889
C       -2.83492618      -2.27061987      -1.16025633
C       -2.02889304      -1.46399516      -0.35070162
C       -3.35652672      -3.35654403      -3.35665811
C       -2.81467059      -4.44186842      -4.06680578
C       -3.62019682      -5.25101002      -4.87451552
C       -4.98157756      -4.98128828      -4.98138740
C       -5.54360506      -3.91231911      -4.28899891
C       -4.73394140      -3.10696018      -3.48196683
H        0.35915042      -0.64429321      -2.63364528
H       -1.06191411      -2.05603996      -4.05807314
H       -3.72221472      -2.72801198      -0.72601660
H       -2.30500771      -1.30160462       0.68767068
H       -1.75431900      -4.67386419      -3.98491340
H       -3.17536973      -6.08542424      -5.40946598
H       -6.60519249      -3.69425311      -4.37046659
H       -5.18758170      -2.26763688      -2.95719492
C       -5.81308939      -5.81256851      -5.81274849
C       -6.50948054      -6.50876570      -6.50901340
Br      -7.63548615      -7.63445767      -7.63481488
C       -0.88157907       0.88157907       0.88157907
C       -1.76391864       1.78430171       0.29523370
C       -2.57064275       2.59028718       1.10473536
C       -2.50650688       2.50649539       2.50643282
C       -1.60653328       1.58687875       3.07239034
C       -0.79841929       0.77804672       2.26712381
C       -3.35660034       3.35663255       3.35649598
C       -4.75040754       3.39452186       3.17841538
C       -5.55996586       4.20083126       3.98492525
C       -4.98124800       4.98150186       4.98150338
C       -3.60330791       4.96286658       5.17874858
C       -2.79845941       4.15416220       4.37024680
H       -1.83186356       1.87270333      -0.78577882
H       -3.24657414       3.29933792       0.63011514
H       -1.53747223       1.48478045       4.15399061
H       -0.11408063       0.07324110       2.73161993
H       -5.22026123       2.78118724       2.41164812
H       -6.63487429       4.20797563       3.82741003
H       -3.14465830       5.57231453       5.95293936
H       -1.72139542       4.16100584       4.53001224
C       -5.81249665       5.81295435       5.81295538
C       -6.50866740       6.50929581       6.50929644
Br      -7.63431662       7.63522106       7.63522102
C        0.88157907      -0.88157907       0.88157907
C        2.21166644      -0.53351936       1.09826824
C        3.01695291      -1.34225593       1.90645644
C        2.50651889      -2.50643922       2.50647698
C        1.16022935      -2.83487308       2.27069994
C        0.35067461      -2.02883980       1.46407540
C        3.35665811      -3.35652673       3.35654402
C        4.06688358      -2.81465266       4.44180855
C        4.87459350      -3.62017882       5.25095004
C        4.98138739      -4.98157756       4.98128829
C        4.28892091      -5.54362307       3.91237910
C        3.48188904      -4.73395933       3.10702005
H        2.63369326       0.35905529       0.64415011
H        4.05812067      -1.06200984       2.05589669
H        0.72596907      -3.72211899       2.72815525
H       -0.68771865      -2.30491259       1.30174771
H        3.98505300      -1.75428607       4.67375753
H        5.40960512      -3.17533742       6.08531742
H        4.37032740      -6.60522482       3.69435997
H        2.95705530      -5.18761466       2.26774353
C        5.81274847      -5.81308940       5.81256852
C        6.50901337      -6.50948056       6.50876572
Br       7.63481483      -7.63548616       7.63445770
