114
Properties=species:S:1:pos:R:3 pbc="F F F"
C        1.79148309       1.79148309      -1.79148309
C        1.38815923       3.08813175      -2.09687514
C        2.19750832       3.89378884      -2.90408020
C        3.41634954       3.41642673      -3.41637090
C        3.79943469       2.10320507      -3.09287470
C        2.99400090       1.29401307      -2.28528792
C        4.26640451       4.26654626      -4.26649018
C        4.66511562       5.54589218      -3.84204906
C        5.47291532       6.35497774      -4.64754138
C        5.89130442       5.89118421      -5.89147668
C        5.51039792       4.62816519      -6.33607203
C        4.70343148       3.82276537      -5.52638363
H        0.44907792       3.48201875      -1.71740347
H        1.86152318       4.90123053      -3.14298556
H        4.74236309       1.70263663      -3.46095565
H        3.31658441       0.28376208      -2.04830723
H        4.35667101       5.91902749      -2.86711016
H        5.76891917       7.33825306      -4.29279980
H        5.83092390       4.26116851      -7.30753185
H        4.40464861       2.84265339      -5.89482356
C        6.72267394       6.72245918      -6.72298533
C        7.41894592       7.41865197      -7.41937383
Br       8.54475882       8.54433683      -8.54537512
C       -1.79148309      -1.79148309      -1.79148309
C       -3.12154429      -1.44337179      -2.00825003
C       -3.92683078      -2.25210849      -2.81643808
C       -3.41642291      -3.41634324      -3.41638101
C       -2.07015952      -3.74482857      -3.18052636
C       -1.26060481      -2.93879542      -2.37390165
C       -4.26656214      -4.26643075      -4.26644805
C       -4.97671220      -3.72457406      -5.35177061
C       -5.78442194      -4.53010029      -6.16091220
C       -5.89129143      -5.89148158      -5.89119230
C       -5.19890053      -6.45350964      -4.82222498
C       -4.39186846      -5.64384598      -4.01686605
H       -3.54355078      -0.55075653      -1.55419283
H       -4.96797862      -1.97182108      -2.96593957
H       -1.63591916      -4.63211580      -3.63792042
H       -0.22223187      -3.21490881      -2.21151305
H       -4.89482172      -2.66422201      -5.58376493
H       -6.31937429      -4.08527276      -6.99532498
H       -5.28036633      -7.51509751      -4.60416042
H       -3.86709465      -6.09748673      -3.17754418
C       -6.72265252      -6.72299341      -6.72247253
C       -7.41891743      -7.41938457      -7.41866972
Br      -8.54471890      -8.54539017      -8.54436170
C       -1.79148309       1.79148309       1.79148309
C       -3.12154108       1.44336546       2.00825958
C       -3.92682757       2.25210218       2.81644760
C       -3.41642291       3.41634324       3.41638101
C       -2.07016273       3.74483488       3.18051683
C       -1.26060803       2.93880175       2.37389211
C       -4.26656214       4.26643075       4.26644805
C       -4.97670295       3.72457619       5.35177773
C       -5.78441267       4.53010243       6.16091933
C       -5.89129143       5.89148158       5.89119230
C       -5.19890981       6.45350749       4.82221784
C       -4.39187771       5.64384384       4.01685893
H       -3.54354508       0.55074522       1.55420985
H       -4.96797297       1.97180969       2.96595661
H       -1.63592481       4.63212718       3.63790338
H       -0.22223758       3.21492012       2.21149603
H       -4.89480512       2.66422593       5.58377761
H       -6.31935774       4.08527661       6.99533768
H       -5.28038288       7.51509367       4.60414772
H       -3.86711125       6.09748281       3.17753150
C       -6.72265252       6.72299341       6.72247253
C       -7.41891743       7.41938457       7.41866972
Br      -8.54471891       8.54539017       8.54436169
C        1.79148309      -1.79148309       1.79148309
C        1.42817950      -3.11345946       2.03152716
C        2.23746454      -3.91903777       2.83887504
C        3.41635176      -3.41642745       3.41636795
C        3.75948001      -2.07795653       3.15807791
C        2.95397992      -1.26868549       2.35063647
C        4.26640684      -4.26654941       4.26648469
C        4.73086616      -5.51222709       3.80996361
C        5.53880367      -6.32122003       4.61541074
C        5.89129317      -5.89119116       5.89148097
C        5.44449153      -4.66193496       6.36820867
C        4.63768961      -3.85642581       5.55846507
H        0.52033115      -3.52735942       1.60080957
H        1.93254556      -4.94707751       3.02611620
H        4.67133788      -1.65679184       3.57782565
H        3.24533401      -0.23842314       2.16489657
H        4.47442037      -5.85814854       2.81023976
H        5.88643444      -7.27789209       4.23564550
H        5.71337358      -4.32154932       7.36470136
H        4.28689023      -2.90355595       5.95167939
C        6.72265372      -6.72247174       6.72299299
C        7.41891818      -7.41866923       7.41938431
Br       8.54471892      -8.54436169       8.54539016
C       -0.00445707       0.01189536      -1.78238275
H       -0.66409135       0.67374010      -2.43557963
H        0.65740317      -0.63156657      -2.45157240
C       -0.90989263      -0.90692880      -0.91072765
C        0.90977584       0.90977584      -0.90977584
C       -0.00465871       1.77757030       0.00794375
H       -0.66225468       2.44313916      -0.64384735
H        0.64322798       2.43503045       0.67728295
C       -1.78241447       0.00034974      -0.00472694
H       -2.45427497      -0.65498947       0.64260836
H       -2.43311707       0.67328779      -0.65473579
C       -0.91132561       0.90220522       0.91563759
C       -0.01476271      -0.02253852       1.78660255
H       -0.67934791      -0.69751639       2.42135241
H        0.63392994       0.61504881       2.47327442
C        0.01484550      -1.77751727      -0.01636693
H        0.67870853      -2.42144646      -0.68295456
H       -0.62264859      -2.45592969       0.64226336
C        1.78714474       0.01002794       0.00389507
H        2.44202412       0.67113390       0.66197326
H        2.45385902      -0.65136977      -0.64189061
C        0.91606151      -0.90478549       0.90901405
