85
Properties=species:S:1:pos:R:3 pbc="F F F"
C        0.00000000       0.00000000       0.00000000
C        0.88157907       0.88157907      -0.88157907
C        0.47825521       2.17822772      -1.18697111
C        1.28760430       2.98388481      -1.99417617
C        2.50644551       2.50652270      -2.50646688
C        2.88953066       1.19330104      -2.18297067
C        2.08409688       0.38410904      -1.37538390
C        3.35650048       3.35664223      -3.35658615
C        3.75521160       4.63598816      -2.93214503
C        4.56301129       5.44507372      -3.73763735
C        4.98140039       4.98128019      -4.98157266
Br       6.07243514       6.07219085      -6.07278998
C        4.60049390       3.71826117      -5.42616801
C        3.79352746       2.91286135      -4.61647961
H       -0.46082610       2.57211473      -0.80749944
H        0.95161915       3.99132651      -2.23308154
H        3.83245907       0.79273261      -2.55105162
H        2.40668038      -0.62614194      -1.13840321
H        3.44676699       5.00912347      -1.95720614
H        4.85901515       6.42834904      -3.38289577
H        4.92101988       3.35126449      -6.39762782
H        3.49474459       1.93274937      -4.98491954
C       -0.88157907      -0.88157907      -0.88157907
C       -0.53250810      -1.09979407      -2.21115187
C       -1.34124730      -1.90797914      -3.01643884
C       -2.50643918      -2.50647706      -2.50651886
C       -2.83588169      -2.26917730      -1.16074339
C       -2.02985107      -1.46254956      -0.35118919
C       -3.35652663      -3.35654414      -3.35665810
C       -2.81499469      -4.44294613      -4.06540397
C       -3.62052216      -5.25208960      -4.87311060
C       -4.98157747      -4.98128812      -4.98138765
Br      -6.07279888      -6.07220550      -6.07241159
C       -5.54327956      -3.91123928      -4.29040424
C       -4.73361735      -3.10588262      -3.48336845
H        0.36086234      -0.64687123      -2.63277918
H       -1.06019126      -2.05862088      -4.05721506
H       -3.72393753      -2.72543103      -0.72687475
H       -2.30671956      -1.29902670       0.68680461
H       -1.75491430      -4.67578403      -3.98239827
H       -3.17595383      -6.08734711      -5.40695901
H       -6.60460817      -3.69232970      -4.37297431
H       -5.18698588      -2.26571722      -2.95971040
C       -0.88157907       0.88157907       0.88157907
C       -1.76519792       1.78303885       0.29521727
C       -2.57191900       2.58902671       1.10471956
C       -2.50650693       2.50649533       2.50643283
C       -1.60525706       1.58813917       3.07240615
C       -0.79714000       0.77930959       2.26714022
C       -3.35660045       3.35663246       3.35649595
C       -4.75059220       3.39317120       3.17958139
C       -5.56015034       4.19947797       3.98609405
C       -4.98124800       4.98150208       4.98150316
Br      -6.07212412       6.07264593       6.07264592
C       -3.60312345       4.96422021       5.17757941
C       -2.79827478       4.15551268       4.36908095
H       -1.83414751       1.87045254      -0.78581197
H       -3.24886732       3.29708813       0.63007174
H       -1.53517906       1.48703029       4.15403395
H       -0.11179677       0.07549180       2.73165308
H       -5.22057690       2.77877408       2.41374562
H       -6.63519945       4.20556344       3.82949707
H       -3.14433309       5.57472742       5.95085168
H       -1.72108020       4.16341901       4.52791428
C        0.88157907      -0.88157907       0.88157907
C        2.21117157      -0.53254669       1.09973578
C        3.01645852      -1.34128579       1.90792097
C        2.50651886      -2.50643918       2.50647705
C        1.16072371      -2.83584320       2.26923546
C        0.35116950      -2.02981248       1.46260784
C        3.35665810      -3.35652663       3.35654414
C        4.06546050      -2.81498158       4.44290271
C        4.87316725      -3.62050900       5.25204611
C        4.98138764      -4.98157748       4.98128812
Br       6.07241157      -6.07279888       6.07220552
C        4.29034757      -5.54329272       3.91128278
C        3.48331193      -4.73363045       3.10592603
H        2.63281417       0.36079338       0.64676728
H        4.05724972      -1.06026066       2.05851681
H        0.72684008      -3.72386813       2.72553509
H       -0.68683960      -2.30665060       1.29913065
H        3.98249969      -1.75489022       4.67570668
H        5.40706011      -3.17593021       6.08726964
H        4.37287319      -6.60463180       3.69240720
H        2.95960896      -5.18700997       2.26579456
