185
Properties=species:S:1:pos:R:3 pbc="F F F"
C        0.00000000       0.00000000       0.00000000
C        0.88091267       0.88091267      -0.88091267
C        2.27172011       0.80114523      -0.76710315
C        3.08112671       1.60080310      -1.58117506
C        2.50256405       2.41780278      -2.55398039
C        1.10571152       2.53043124      -2.62685056
C        0.29494966       1.75979359      -1.78817397
C        3.31610066       3.24917787      -3.47519159
O        3.04188460       4.45007393      -3.43942974
C        4.28957727       2.65541731      -4.40200251
S        5.10208944       3.76687357      -5.43794653
C        6.06948863       2.55164504      -6.11541133
N        7.10033765       2.90932480      -6.90000550
C        7.84567436       1.90360353      -7.37285158
C        7.42160046       0.58389876      -7.24518996
C        6.23322276       0.20615736      -6.56553565
C        5.67748797      -1.18205743      -6.75760428
C        4.65206224      -1.76867377      -6.00119352
C        4.21634788      -3.09313833      -6.18707235
C        4.73942683      -3.85697890      -7.21578986
C        5.67284269      -3.29487631      -8.06770983
C        6.12442495      -1.98488858      -7.83821002
C        5.65344769       1.26282779      -5.78959318
C        4.78828008       1.37747843      -4.62079756
N        4.61601122       0.34830707      -3.76111363
C        9.16700747       2.27187110      -8.01599075
C        9.88688191       1.39877124      -9.01769750
C        9.20653761       2.65284802      -9.47744623
H        2.72995505       0.12721440      -0.04951506
H        4.16300323       1.55921411      -1.46509993
H        0.64745067       3.22597593      -3.32696037
H       -0.78679795       1.85636011      -1.85074808
H        8.05078068      -0.17978715      -7.69044071
H        4.10359844      -1.21866545      -5.25701785
H        3.44943238      -3.49857019      -5.53158023
H        6.05419235      -3.85152444      -8.91995181
H        6.82305248      -1.59625155      -8.57589855
H        5.24103094      -0.45661537      -3.79529291
H        3.70252780       0.11065413      -3.38516469
H        9.81130142       2.86074437      -7.36429980
H        9.45973120       0.45852658      -9.34153140
H       10.97145227       1.39166313      -8.98113545
H        9.82627134       3.49638038      -9.76007032
H        8.29988046       2.55547047     -10.06376943
C        4.28660732      -5.20866833      -7.41948122
C        3.90737099      -6.34070823      -7.59007274
Br       3.29417790      -8.17112101      -7.86590479
C       -0.88091267      -0.88091267      -0.88091267
C       -1.52232562      -1.99182312      -0.32581973
C       -2.33851211      -2.79481482      -1.12977795
C       -2.57022176      -2.44340879      -2.46071667
C       -1.88264551      -1.35712333      -3.02322447
C       -1.03698687      -0.57547784      -2.23045252
C       -3.46460714      -3.23249051      -3.34337247
O       -2.92232902      -3.63481695      -4.37424229
C       -4.88873979      -3.42280353      -3.03545376
S       -5.78744310      -4.31788715      -4.20157929
C       -7.20194363      -4.26466344      -3.26993793
N       -8.24483640      -5.02957476      -3.63525680
C       -9.31686344      -4.96851756      -2.83674847
C       -9.40958517      -3.99626747      -1.84483654
C       -8.37697092      -3.06205216      -1.56589268
C       -8.68058674      -1.84970180      -0.72274629
C       -7.73437081      -0.96384009      -0.18637110
C       -8.07425344       0.11782327       0.64614826
C       -9.40388718       0.40724164       0.89840774
C      -10.38754845      -0.36256327       0.30443551
C      -10.02524697      -1.46317691      -0.48932251
C       -7.13012189      -3.37629494      -2.19945183
C       -5.71614884      -3.10440076      -1.96600648
N       -5.25913304      -2.71007287      -0.75622600
C      -10.39079840      -6.01597443      -3.04809649
C      -11.83295062      -5.83727747      -2.63312255
C      -11.46502422      -5.78644807      -4.08535958
H       -1.38961489      -2.24000539       0.72293576
H       -2.80897601      -3.67795872      -0.70038252
H       -1.99458600      -1.12536483      -4.08043613
H       -0.50653391       0.26291754      -2.67669387
H      -10.32496646      -3.97378571      -1.26268206
H       -6.68674604      -1.03543292      -0.41977188
H       -7.28416945       0.73545161       1.06627542
H      -11.43890163      -0.11983230       0.43611421
H      -10.85176338      -1.99185928      -0.95907682
H       -5.85537157      -2.79128867       0.06695176
H       -4.56651697      -1.97316497      -0.65866467
H      -10.01237818      -7.03568421      -2.98828322
H      -12.16823309      -4.91508253      -2.17647356
H      -12.35785283      -6.71536956      -2.27102846
H      -11.74454108      -6.62508159      -4.71309938
H      -11.50437872      -4.82672391      -4.58801774
C       -9.75783637       1.52203575       1.73838040
C      -10.05426881       2.45567582       2.44185750
Br     -10.53357500       3.96529284       3.57932048
C       -0.88091267       0.88091267       0.88091267
C       -2.17148935       0.45759925       1.21087989
C       -2.97691316       1.25937265       2.02681906
C       -2.46547520       2.43945324       2.56941878
C       -1.18843743       2.88230101       2.19225488
C       -0.39604306       2.10034164       1.34653253
C       -3.25995835       3.30182899       3.47868277
O       -3.37433196       4.46599838       3.09105793
C       -3.77372902       2.80910782       4.76416025
S       -4.62530121       3.96566578       5.71594256
C       -5.00347419       2.82365109       6.90941973
N       -5.88814203       3.15685047       7.86467545
C       -6.16980047       2.19789820       8.75443080
C       -5.40978619       1.03288180       8.80802118
C       -4.34934665       0.74828944       7.90727967
C       -3.37430576      -0.35442283       8.23315190
C       -2.41957747      -0.89252602       7.35753055
C       -1.57627961      -1.96522970       7.69923199
C       -1.59857883      -2.48287663       8.98253559
C       -2.43904652      -1.91797254       9.92460223
C       -3.30259085      -0.87536918       9.55052472
C       -4.30508724       1.62597295       6.77480847
C       -3.80275783       1.57759024       5.40620800
N       -3.52917115       0.40504567       4.79121509
C       -7.35886983       2.43261837       9.66338112
C       -7.53685566       1.76102007      11.00547491
C       -7.17855482       3.21521107      10.94306597
H       -2.55651377      -0.48605659       0.83622735
H       -3.99320568       0.94077983       2.25333175
H       -0.81383647       3.84074529       2.54580521
H        0.59150589       2.45379302       1.05802312
H       -5.66269746       0.31624666       9.58249011
H       -2.24509550      -0.48187822       6.37873357
H       -0.89257911      -2.36376113       6.95362444
H       -2.43219381      -2.26446585      10.95489176
H       -3.89934517      -0.45225632      10.35561063
H       -3.85902978      -0.47220691       5.19288561
H       -2.69664395       0.27908253       4.22262013
H       -8.28029072       2.63667140       9.11938348
H       -6.78551649       1.08378809      11.39048459
H       -8.54796803       1.49762609      11.29865673
H       -7.94185584       3.94115852      11.19970769
H       -6.17633007       3.50642981      11.23636049
C       -0.72722450      -3.57158453       9.34178025
C        0.00253475      -4.48337741       9.64264765
Br       1.18249374      -5.95766936      10.12912479
C        0.88091267      -0.88091267       0.88091267
C        1.85668400      -1.69057321       0.29271127
C        2.67208216      -2.49131371       1.09970900
C        2.56113988      -2.42364709       2.48956025
C        1.54569199      -1.64787839       3.06942294
C        0.70506637      -0.87564974       2.26220112
C        3.43311497      -3.21483060       3.39252455
O        2.81628427      -3.94139849       4.17370552
C        4.89403426      -3.05706424       3.39589858
S        5.74168748      -4.01481818       4.55040388
C        7.25359007      -3.48074362       4.00221133
N        8.35871423      -4.10007294       4.45088079
C        9.51707057      -3.65393567       3.95112322
C        9.56450138      -2.47715935       3.20902845
C        8.41339656      -1.71457154       2.87694766
C        8.57797542      -0.30391676       2.37114264
C        7.56892513       0.48892994       1.80458681
C        7.79665280       1.77923318       1.29286229
C        9.04484419       2.36391659       1.41731019
C       10.05167906       1.67535652       2.06935367
C        9.81426965       0.37182541       2.53530215
C        7.17840176      -2.39651623       3.13095067
C        5.80973915      -2.34801487       2.62880205
N        5.50869426      -1.77486217       1.44187548
C       10.74675323      -4.50100037       4.20711573
C       12.15871348      -3.96279162       4.18184555
C       11.52319588      -4.32279935       5.49083663
H        1.98497046      -1.70713222      -0.78541816
H        3.40793420      -3.14515531       0.63422775
H        1.39984177      -1.65286347       4.14768173
H       -0.08071920      -0.27969781       2.72133163
H       10.54181600      -2.14779870       2.87181953
H        6.54240070       0.16940373       1.76895388
H        6.97742315       2.31832445       0.82334373
H       11.02266415       2.13507430       2.23502988
H       10.63815030      -0.08717049       3.07737869
H        6.25102976      -1.54800969       0.78066903
H        4.69401437      -1.17907188       1.32526037
H       10.63530081      -5.53087191       3.87017287
H       12.34876126      -2.91333696       3.99769095
H       12.93268454      -4.61732403       3.79424228
H       11.86802043      -5.21710612       5.99759549
H       11.24206101      -3.51731328       6.15974608
C        9.27964712       3.69020956       0.90798265
C        9.47629458       4.80097992       0.48142083
Br       9.79425687       6.59700165      -0.20829354
