101
Properties=species:S:1:pos:R:3 pbc="F F F"
C        0.00000000       0.00000000       0.00000000
C        0.88241791       0.88241791      -0.88241791
C        2.18914688       0.48613318      -1.16477878
C        2.99169382       1.28269626      -1.98043563
C        2.48830377       2.47685944      -2.49961682
C        1.18047441       2.88516890      -2.19997774
C        0.36798093       2.07222350      -1.39917532
C        0.69177982       4.17143850      -2.77995515
O        1.16429089       4.54106564      -3.84838620
N       -0.24185157       4.84363274      -2.01568302
C       -0.90746402       6.05659496      -2.31690857
C       -0.71555718       6.76006613      -3.50885617
C       -1.40463630       7.95368449      -3.75234119
C       -2.29755449       8.45745246      -2.80994046
C       -2.50531312       7.76871015      -1.61772617
C       -1.81451444       6.57764052      -1.37384278
Br      -2.15129331       5.68345410       0.27384976
H        2.58702660      -0.44294774      -0.76394144
H        4.00764815       0.97411471      -2.21540758
H        3.11925672       3.09215294      -3.13988238
H       -0.66509840       2.33746387      -1.19706867
H       -0.46001991       4.47213542      -1.09866582
H       -0.03265404       6.40799840      -4.27575594
H       -1.23891871       8.48773158      -4.68534670
H       -2.83063544       9.38440278      -3.00597096
H       -3.20564669       8.16549115      -0.88749259
C       -0.88241791      -0.88241791      -0.88241791
C       -2.20414087      -1.12540684      -0.51051113
C       -3.01506730      -1.91906041      -1.32069800
C       -2.49747268      -2.47554066      -2.49176670
C       -1.16253751      -2.24707731      -2.85600622
C       -0.35600955      -1.43061034      -2.05275986
C       -0.65872648      -2.86674822      -4.11769877
O       -1.45995136      -3.07202661      -5.02176476
N        0.68599281      -3.18193062      -4.12152638
C        1.44943881      -3.74005225      -5.17542608
C        0.91702135      -4.03787053      -6.43251594
C        1.72228603      -4.58644125      -7.43723416
C        3.07081784      -4.84041283      -7.20024344
C        3.62075630      -4.54671092      -5.95516858
C        2.81508334      -4.00118507      -4.95086712
Br       3.63314688      -3.61727315      -3.27418476
H       -2.61343154      -0.69460606       0.40001731
H       -4.05052224      -2.10282672      -1.04382149
H       -3.13789824      -3.09093257      -3.12246123
H        0.66356928      -1.19305343      -2.33994999
H        1.20511234      -3.05516562      -3.26072804
H       -0.12708592      -3.85630300      -6.66771137
H        1.28785111      -4.81383578      -8.40817490
H        3.69105635      -5.26530589      -7.98548876
H        4.67451045      -4.74450623      -5.77734127
C       -0.88241791       0.88241791       0.88241791
C       -1.99890503       1.51000635       0.33114746
C       -2.81301808       2.30467444       1.13713319
C       -2.50034915       2.47775836       2.48667253
C       -1.36660175       1.86221667       3.03680262
C       -0.56281707       1.04561059       2.23095209
C       -1.07693737       2.08101848       4.48521762
O       -2.01960287       2.29627094       5.23786892
N        0.26054603       2.04960744       4.82840278
C        0.83574977       2.18677035       6.11501893
C        0.07976744       2.35510294       7.27802962
C        0.70488853       2.48252479       8.52375313
C        2.09314850       2.43900954       8.62397739
C        2.86362344       2.26794378       7.47680286
C        2.23860610       2.14343229       6.23214266
Br       3.35201357       1.90507005       4.70525454
H       -2.24815156       1.37889028      -0.71902155
H       -3.69252757       2.78724975       0.71739312
H       -3.14326830       3.09630909       3.11171464
H        0.28859670       0.51383956       2.64419127
H        0.94001295       1.96969830       4.08109598
H       -1.00484791       2.39302468       7.25322770
H        0.09843471       2.61573626       9.41685803
H        2.57230396       2.53718269       9.59485957
H        3.94648696       2.23187863       7.56194538
C        0.88241791      -0.88241791       0.88241791
C        2.20754619      -0.51659804       1.11591462
C        3.01064554      -1.31279424       1.93138593
C        2.48895860      -2.47654806       2.49927337
C        1.16188542      -2.85484063       2.24889499
C        0.34974603      -2.04156402       1.44806970
C        0.65404411      -4.10932919       2.87980018
O        1.14686884      -4.46213977       3.94473413
N       -0.32018880      -4.77538934       2.16226365
C       -1.01085929      -5.95937294       2.51752587
C       -0.80426936      -6.63405651       3.72357798
C       -1.51952394      -7.79966491       4.02124841
C       -2.45350017      -8.30367901       3.11965959
C       -2.67635429      -7.64325693       1.91422057
C       -1.95946550      -6.48025663       1.61617772
Br      -2.31870198      -5.62371296      -0.04669995
H        2.61974641       0.38872968       0.67700357
H        4.04136930      -1.02746089       2.12834025
H        3.12062754      -3.09159040       3.13907410
H       -0.69589989      -2.28216006       1.28317396
H       -0.55440856      -4.42384021       1.24134968
H       -0.08955983      -6.28046401       4.46019612
H       -1.34185507      -8.31164455       4.96437010
H       -3.00670771      -9.20874005       3.35770597
H       -3.40867765      -8.03997687       1.21603783
