117
Properties=species:S:1:pos:R:3 pbc="F F F"
C        0.00000000       0.00000000       0.00000000
C        0.88169515       0.88169515      -0.88169515
C        2.05928729       1.41960623      -0.36507686
C        2.86327496       2.22770209      -1.17346648
C        2.49550963       2.48746548      -2.50056011
C        1.30157340       1.95436236      -3.00604316
C        0.49695708       1.14811651      -2.19529685
C        3.37864498       3.35811772      -3.32220815
O        4.12543792       4.17828683      -2.79408813
N        3.32308311       3.17228645      -4.68720725
N        4.16750231       3.93829354      -5.49360938
C        4.27919213       3.59296797      -6.82430338
O        3.66725074       2.64547362      -7.31275558
C        5.19909231       4.41582936      -7.65506572
C        5.52827653       5.73650373      -7.31738103
C        6.38076026       6.47745777      -8.13973509
C        6.90109690       5.90768383      -9.30180224
C        6.56228793       4.59904560      -9.64284265
Br       7.25958989       3.83492420     -11.22523023
C        5.71214869       3.85130066      -8.83010579
H        2.35816262       1.22271350       0.66141921
H        3.77937578       2.65170365      -0.76549080
H        0.96578963       2.17488055      -4.01572512
H       -0.42913358       0.74122703      -2.59440817
H        2.86604906       2.38419166      -5.14285710
H        4.77846791       4.59295249      -5.00894313
H        5.11124487       6.21819334      -6.43708452
H        6.63159654       7.50360963      -7.87988656
H        7.56084626       6.49305506      -9.93769863
H        5.44537941       2.83272558      -9.10474460
C       -0.88169515      -0.88169515      -0.88169515
C       -0.52944973      -1.10233396      -2.21218669
C       -1.33910128      -1.90799406      -3.01734820
C       -2.49319916      -2.50167357      -2.48866249
C       -2.84705097      -2.26124885      -1.15367911
C       -2.03737233      -1.45294216      -0.35005594
C       -3.32822330      -3.34650730      -3.38424026
O       -3.30683194      -3.18858954      -4.60239140
N       -4.09510894      -4.31515368      -2.77231419
N       -4.86096907      -5.15941488      -3.57902128
C       -5.44004120      -6.26486868      -2.99155360
O       -5.30316782      -6.52437679      -1.79793533
C       -6.23568731      -7.15551136      -3.87878873
C       -6.82115467      -6.69431906      -5.06668755
C       -7.57727839      -7.56311080      -5.85756393
C       -7.75709118      -8.88928272      -5.46420908
C       -7.18529242      -9.34260523      -4.27627853
Br      -7.44199025     -11.13732811      -3.74042596
C       -6.42987654      -8.48421943      -3.47945919
H        0.36524704      -0.65104244      -2.63366152
H       -1.06499490      -2.07360131      -4.05797402
H       -3.75954255      -2.66936375      -0.72748900
H       -2.32092493      -1.26910395       0.68352726
H       -3.99568285      -4.59846562      -1.79894935
H       -4.79840347      -4.99933581      -4.58262425
H       -6.72712207      -5.65836332      -5.38103735
H       -8.03544847      -7.20334426      -6.77629999
H       -8.35016411      -9.55731171      -6.08412413
H       -5.99173924      -8.84144366      -2.54966668
C       -0.88169515       0.88169515       0.88169515
C       -0.47960699       1.18231484       2.18204855
C       -1.28927260       1.98776702       2.98740391
C       -2.49381734       2.50143560       2.48828227
C       -2.89675976       2.18078321       1.18443595
C       -2.08686846       1.37276587       0.38073610
C       -3.32652608       3.34917155       3.38327323
O       -3.24144866       3.25141459       4.60494963
N       -4.16666262       4.25078653       2.76512767
N       -4.93442726       5.09684543       3.56813255
C       -5.59264872       6.14479461       2.95902015
O       -5.52358991       6.35238981       1.74950021
C       -6.38866354       7.03964829       3.84167557
C       -6.89584062       6.60988008       5.07644060
C       -7.65580427       7.48009883       5.86205001
C       -7.91737386       8.77603754       5.41717157
C       -7.42345635       9.19732241       4.18339742
Br      -7.79092897      10.95034520       3.57847016
C       -6.66497519       8.33716681       3.39141316
H        0.45430096       0.79359170       2.58016618
H       -0.97584308       2.21588138       4.00484578
H       -3.84655507       2.52537866       0.78446157
H       -2.40851841       1.12636619      -0.62838298
H       -4.12597223       4.49104352       1.77608207
H       -4.81804511       4.98846810       4.57385031
H       -6.73751326       5.59574447       5.43326501
H       -8.05326322       7.14439595       6.81743355
H       -8.51283001       9.44519564       6.03357431
H       -6.28789085       8.66887643       2.42608230
C        0.88169515      -0.88169515       0.88169515
C        2.24041009      -1.00682522       0.59673508
C        3.04457716      -1.81585050       1.40401587
C        2.49232545      -2.48927802       2.50193175
C        1.12180760      -2.36910288       2.77106844
C        0.31802864      -1.56132343       1.96101837
C        3.38488614      -3.34432162       3.32976310
O        4.41538574      -3.82142179       2.86100535
N        3.00031600      -3.54358936       4.63867145
N        3.83177761      -4.30408059       5.46354703
C        3.56940428      -4.30940627       6.81765293
O        2.64025591      -3.67394105       7.31128297
C        4.48199139      -5.11425715       7.67373885
C        5.21283980      -6.19973589       7.16958560
C        6.04193119      -6.93920697       8.01681496
C        6.13960724      -6.60371696       9.36725876
C        5.40219991      -5.53245668       9.86951959
Br       5.52774182      -5.08900269      11.70299982
C        4.57151834      -4.78866157       9.03337524
H        2.68221263      -0.48674417      -0.24949988
H        4.10431173      -1.91679325       1.17546525
H        0.65501777      -2.91460839       3.58676915
H       -0.74472734      -1.47620667       2.17502228
H        2.26616899      -3.01738166       5.10954717
H        4.68140876      -4.66504633       5.03390844
H        5.13062701      -6.50575869       6.13013703
H        6.60462142      -7.78430920       7.62616210
H        6.78453563      -7.18710015      10.01996417
H        3.99277526      -3.95792501       9.43214931
