125
Properties=species:S:1:pos:R:3 pbc="F F F"
C        0.00000000       0.00000000       0.00000000
C        0.88169515       0.88169515      -0.88169515
C        2.05928729       1.41960623      -0.36507686
C        2.86327496       2.22770209      -1.17346648
C        2.49550963       2.48746548      -2.50056011
C        1.30157340       1.95436236      -3.00604316
C        0.49695708       1.14811651      -2.19529685
C        3.37864498       3.35811772      -3.32220815
O        4.12543792       4.17828683      -2.79408813
N        3.32308311       3.17228645      -4.68720725
N        4.16750231       3.93829354      -5.49360938
C        4.27919213       3.59296797      -6.82430338
O        3.66725074       2.64547362      -7.31275558
C        5.19909231       4.41582936      -7.65506572
C        5.52827653       5.73650373      -7.31738103
C        6.38076026       6.47745777      -8.13973509
C        6.90109690       5.90768383      -9.30180224
C        6.56228793       4.59904560      -9.64284265
C        5.71214869       3.85130066      -8.83010579
H        2.35816262       1.22271350       0.66141921
H        3.77937578       2.65170365      -0.76549080
H        0.96578963       2.17488055      -4.01572512
H       -0.42913358       0.74122703      -2.59440817
H        2.86604906       2.38419166      -5.14285710
H        4.77846791       4.59295249      -5.00894313
H        5.11124487       6.21819334      -6.43708452
H        6.63159654       7.50360963      -7.87988656
H        7.56084626       6.49305506      -9.93769863
H        5.44537941       2.83272558      -9.10474460
C        7.09341977       4.01701769     -10.84814032
C        7.53824269       3.52956931     -11.85757712
Br       8.25748373       2.74140651     -13.48975105
C       -0.88169515      -0.88169515      -0.88169515
C       -0.45331186      -1.22871761      -2.16194092
C       -1.26297695      -2.03405410      -2.96741248
C       -2.49417578      -2.50127741      -2.48808203
C       -2.92295425      -2.13411789      -1.20490679
C       -2.11294853      -1.32626981      -0.40115209
C       -3.32562815      -3.35071886      -3.38262384
O       -3.20515132      -3.28898799      -4.60367358
N       -4.20657342      -4.21209523      -2.76390816
N       -4.97555079      -5.05906749      -3.56478695
C       -5.67850652      -6.07179814      -2.94615882
O       -5.64766247      -6.24775531      -1.73006216
C       -6.47492165      -6.96896668      -3.82609907
C       -6.93675920      -6.55994539      -5.08545670
C       -7.69907383      -7.43078942      -5.86808987
C       -8.00810112      -8.70649179      -5.39599006
C       -7.55925294      -9.10670767      -4.13821557
C       -6.79886805      -8.24570388      -3.34898323
H        0.50129751      -0.87630438      -2.54445006
H       -0.92877661      -2.29844925      -3.96934438
H       -3.89227278      -2.44195876      -0.82216376
H       -2.45463599      -1.04361177       0.59174615
H       -4.19906341      -4.42600584      -1.76802857
H       -4.82929213      -4.98161153      -4.56945986
H       -6.74102660      -5.56064152      -5.46485461
H       -8.06136066      -7.11100645      -6.84272561
H       -8.60502681      -9.37617269      -6.01040046
H       -6.45709751      -8.56067589      -2.36507618
C       -7.88810966     -10.42078225      -3.64968588
C       -8.16352716     -11.52131971      -3.24054226
Br      -8.60885396     -13.30079570      -2.57899163
C       -0.88169515       0.88169515       0.88169515
C       -0.41534841       1.30261419       2.12600778
C       -1.22499972       2.10777384       2.93166997
C       -2.49474627       2.50099545       2.48779350
C       -2.96072320       2.05983105       1.24142467
C       -2.15054865       1.25225459       0.43756719
C       -3.32432761       3.35318532       3.38145793
O       -3.14978846       3.35050041       4.59752400
N       -4.26774076       4.14846957       2.76636648
N       -5.03881017       4.99670304       3.56389202
C       -5.81123623       5.95057957       2.93464768
O       -5.83956452       6.07388637       1.71202905
C       -6.60856688       6.85124324       3.81017728
C       -6.99832396       6.47901389       5.10482345
C       -7.76456622       7.35055140       5.88283550
C       -8.14920678       8.59000594       5.37137025
C       -7.77195970       8.95296758       4.07924890
C       -7.00835618       8.09087946       3.29431951
H        0.56917330       1.00803867       2.48059155
H       -0.86076992       2.42996993       3.90583038
H       -3.95797106       2.30928589       0.88913835
H       -2.52106480       0.91191184      -0.52647503
H       -4.31173337       4.31838423       1.76298022
H       -4.84698150       4.96986987       4.56351216
H       -6.74286951       5.50656999       5.51708323
H       -8.07091716       7.05904289       6.88513268
H       -8.74860228       9.26032210       5.98267557
H       -6.72266264       8.37631075       2.28387619
C       -8.17877859      10.22916086       3.55063834
C       -8.51948941      11.29797272       3.10792699
Br      -9.07038998      13.02615111       2.39210020
C        0.88169515      -0.88169515       0.88169515
C        2.22707847      -1.05560873       0.56128318
C        3.03119762      -1.86453941       1.36870651
C        2.49270110      -2.48900181       2.50183230
C        1.13490823      -2.32014532       2.80692538
C        0.33105790      -1.51255138       1.99676115
C        3.38441566      -3.34595695       3.32859825
O        4.38615700      -3.86705773       2.84459816
N        3.03352671      -3.49555985       4.65349025
N        3.86685152      -4.25630390       5.47624980
C        3.64503417      -4.21447445       6.83695486
O        2.74989658      -3.53745421       7.33812914
C        4.55905944      -5.02105901       7.68986895
C        5.24269185      -6.14207894       7.19739051
C        6.07492696      -6.88110136       8.04192480
C        6.22262986      -6.50962266       9.37833045
C        5.53197492      -5.40266768       9.86953359
C        4.69860792      -4.65895567       9.03599156
H        2.65829477      -0.57375187      -0.31258972
H        4.08024879      -2.00371085       1.11261059
H        0.67707546      -2.82754387       3.65177597
H       -0.72190634      -1.38952411       2.23888384
H        2.32936936      -2.93419254       5.12953592
H        4.69242214      -4.65482830       5.03311309
H        5.12059174      -6.47555085       6.17038014
H        6.60091806      -7.75363162       7.66054304
H        6.86957727      -7.09283356      10.02918913
H        4.15640371      -3.80006295       9.42638293
C        5.67907316      -5.02750423      11.25200040
C        5.80226794      -4.71330483      12.40981635
Br       6.00146347      -4.20527099      14.28190683
