146
Properties=species:S:1:pos:R:3 pbc="F F F"
C        1.79159917       1.79159917      -1.79159917
C        2.96919132       2.32951026      -1.27498088
C        3.77317899       3.13760612      -2.08337050
C        3.40541366       3.39736950      -3.41046413
C        2.21147742       2.86426639      -3.91594719
C        1.40686111       2.05802053      -3.10520087
C        4.28854901       4.26802174      -4.23211218
O        5.03534194       5.08819086      -3.70399216
N        4.23298714       4.08219047      -5.59711127
N        5.07740633       4.84819757      -6.40351340
C        5.18909615       4.50287199      -7.73420741
O        4.57715476       3.55537764      -8.22265961
C        6.10899634       5.32573339      -8.56496974
C        6.43818056       6.64640775      -8.22728505
C        7.29066429       7.38736179      -9.04963911
C        7.81100092       6.81758785     -10.21170626
C        7.47219195       5.50894962     -10.55274668
C        6.62205272       4.76120469      -9.74000981
H        3.26806665       2.13261753      -0.24848482
H        4.68927980       3.56160768      -1.67539483
H        1.87569366       3.08478458      -4.92562914
H        0.48077044       1.65113105      -3.50431219
H        3.77595308       3.29409569      -6.05276113
H        5.68837193       5.50285652      -5.91884715
H        6.02114889       7.12809737      -7.34698854
H        7.54150056       8.41351365      -8.78979058
H        8.47075029       7.40295909     -10.84760265
H        6.35528343       3.74262960     -10.01464862
C        8.00332380       4.92692171     -11.75804435
C        8.44814671       4.43947334     -12.76748115
Br       9.16738775       3.65131054     -14.39965508
C       -1.79159917      -1.79159917      -1.79159917
C       -1.37459900      -2.11811958      -3.08096388
C       -2.18426510      -2.92350674      -3.88638377
C       -3.40392145      -3.41125313      -3.39807271
C       -3.82152168      -3.06463830      -2.10553102
C       -3.01156571      -2.25671531      -1.30180149
C       -4.23592113      -4.25993910      -4.29282269
O       -4.13094601      -4.18219037      -5.51438856
N       -5.09898724      -5.13921480      -3.67408685
N       -5.86741914      -5.98579512      -4.47590305
C       -6.55071621      -7.01425250      -3.86120684
O       -6.50308894      -7.20432431      -2.64777876
C       -7.34693779      -7.91040975      -4.74235194
C       -7.82880024      -7.49199663      -5.99107649
C       -8.59006512      -8.36258254      -6.77501753
C       -8.87812205      -9.64746730      -6.31470569
C       -8.40937129     -10.05721427      -5.06730269
C       -7.64983874      -9.19656924      -4.27685924
H       -0.42895273      -1.74966276      -3.47055350
H       -1.85905891      -3.17187059      -4.89535280
H       -4.78240408      -3.38870963      -1.71499366
H       -3.34458499      -1.99007382      -0.30155488
H       -5.07689748      -5.36488840      -2.68102402
H       -5.73424021      -5.89459436      -5.48124103
H       -7.64960357      -6.48594516      -6.36068607
H       -8.96788743      -8.03559030      -7.74132706
H       -9.47439067     -10.31692905      -6.92999230
H       -7.29247520      -9.51910964      -3.30097681
C       -8.71659843     -11.38090127      -4.59079015
C       -8.97390116     -12.48948914      -4.19171090
Br      -9.38993792     -14.28198195      -3.54643349
C       -1.79159917       1.79159917       1.79159917
C       -1.34278800       2.17722163       3.05367283
C       -2.15244787       2.98246462       3.85924311
C       -3.40437785       3.41103874       3.39783070
C       -3.85318979       3.00521380       2.13328740
C       -3.04309383       2.19750729       1.32948138
C       -4.23483306       4.26191088       4.29193898
O       -4.08576356       4.23076697       5.51099442
N       -5.14879356       5.08907131       3.67442401
N       -5.91883915       5.93673191       4.47354625
C       -6.65835311       6.91914297       3.84867947
O       -6.65867523       7.06794443       2.62857235
C       -7.45520399       7.81816642       4.72632906
C       -7.87937141       7.42779018       6.00471178
C       -8.64370958       8.29904263       6.78491298
C       -8.99222798       9.55642527       6.29164180
C       -8.58080702       9.93774689       5.01533434
C       -7.81876944       9.07613599       4.22836180
H       -0.37208717       1.85501788       3.42206395
H       -1.80209590       3.27704858       4.84713783
H       -4.83758026       3.28253437       1.76599275
H       -3.40031074       1.88470886       0.35119409
H       -5.16839034       5.28031211       2.67410744
H       -5.74847008       5.88550795       5.47609758
H       -7.65246652       6.44202160       6.40174669
H       -8.97676662       7.99358246       7.77445572
H       -9.59042398      10.22646814       6.90441991
H       -7.50631531       9.37611828       3.23012807
C       -8.95038710      11.23266476       4.50523800
C       -9.25991041      12.31715848       4.07803231
Br      -9.76038342      14.07069309       3.38727685
C        1.79159917      -1.79159917       1.79159917
C        2.76811978      -2.59727778       1.20828490
C        3.57226778      -3.40461298       2.01727484
C        3.40748607      -3.39683544       3.40892578
C        2.41239964      -2.59463226       3.98465910
C        1.60695442      -1.78933706       3.17379103
C        4.28173531      -4.27692076       4.23002686
O        4.79510326      -5.28386195       3.74855974
N        4.49344607      -3.88426803       5.53457479
N        5.34283557      -4.65798413       6.32829760
C        5.73497877      -4.14434640       7.54685039
O        5.36480516      -3.04287300       7.94751385
C        6.65368226      -4.98297846       8.36303875
C        6.71968416      -6.37604673       8.21614247
C        7.58341737      -7.12442137       9.01982644
C        8.37714624      -6.48859261       9.97455619
C        8.30057925      -5.10506402      10.12824499
C        7.44181241      -4.34906444       9.33239037
H        2.90900951      -2.60973464       0.13042484
H        4.33006598      -4.03767506       1.55854127
H        2.22914880      -2.60121947       5.05573911
H        0.83535107      -1.17250102       3.62836159
H        4.24474607      -2.96986080       5.90820302
H        5.75606738      -5.47366490       5.88034332
H        6.08874582      -6.90245423       7.50503476
H        7.63033601      -8.20558639       8.90888239
H        9.04374144      -7.07946912      10.59810147
H        7.38084412      -3.27030428       9.46141326
C        9.11417747      -4.45279188      11.12132050
C        9.79556599      -3.90651396      11.95302124
Br      10.89731359      -3.02322877      13.29781100
C       -0.00445707       0.01189536      -1.78238275
H       -0.66409135       0.67374010      -2.43557963
H        0.65740317      -0.63156657      -2.45157240
C       -0.90989263      -0.90692880      -0.91072765
C        0.90977584       0.90977584      -0.90977584
C       -0.00465871       1.77757030       0.00794375
H       -0.66225468       2.44313916      -0.64384735
H        0.64322798       2.43503045       0.67728295
C       -1.78241447       0.00034974      -0.00472694
H       -2.45427497      -0.65498947       0.64260836
H       -2.43311707       0.67328779      -0.65473579
C       -0.91132561       0.90220522       0.91563759
C       -0.01476271      -0.02253852       1.78660255
H       -0.67934791      -0.69751639       2.42135241
H        0.63392994       0.61504881       2.47327442
C        0.01484550      -1.77751727      -0.01636693
H        0.67870853      -2.42144646      -0.68295456
H       -0.62264859      -2.45592969       0.64226336
C        1.78714474       0.01002794       0.00389507
H        2.44202412       0.67113390       0.66197326
H        2.45385902      -0.65136977      -0.64189061
C        0.91606151      -0.90478549       0.90901405
