130
Properties=species:S:1:pos:R:3 pbc="F F F"
C        1.78368897       1.78368897      -1.78368897
C        2.50647829       1.28241001      -2.83444374
N        3.29354202       2.03956524      -3.61843169
C        3.36874632       3.35618026      -3.34134692
N        4.18321611       4.19616085      -4.09150532
N        5.15907619       3.78055193      -5.05263613
C        5.93704607       4.79976901      -5.44515215
H        5.83725182       5.82368481      -5.09710483
C        7.02191489       4.54304877      -6.41958398
C        7.70894409       5.64525953      -6.94639881
C        8.74294323       5.46262059      -7.86971163
C        9.11733623       4.18409653      -8.28083812
C        8.45023229       3.07614360      -7.76309264
C        7.41687582       3.25999982      -6.84600265
O        6.80401979       2.12521085      -6.37969452
N        2.68678938       3.93790476      -2.33394616
C        1.90995477       3.13512823      -1.57858362
H        2.48980983       0.23100798      -3.09759893
H        4.24987472       5.12253864      -3.69836541
H        7.42665841       6.64784756      -6.63751933
H        9.91879539       4.03907994      -8.99794931
H        8.72192547       2.07107801      -8.06669060
H        6.08385108       2.47385638      -5.78853502
H        1.38333031       3.64284327      -0.77786596
C        9.43147646       6.60811821      -8.40576872
C       10.00812304       7.56747246      -8.85471653
Br      10.94051178       9.11866715      -9.58062716
C       -1.78368897      -1.78368897      -1.78368897
C       -2.33844381      -1.33231229      -2.95257595
N       -3.12250510      -2.08946014      -3.73957371
C       -3.37008223      -3.35328921      -3.34290205
N       -4.19377232      -4.18587182      -4.09123813
N       -5.01717482      -3.78411967      -5.19096975
C       -5.86017995      -4.75801329      -5.56377400
H       -5.90938808      -5.74196144      -5.10669195
C       -6.80763079      -4.50400759      -6.67290927
C       -7.55652667      -5.58387490      -7.16020087
C       -8.46695459      -5.40253230      -8.20578855
C       -8.65484885      -4.14646751      -8.78095452
C       -7.92411897      -3.05994283      -8.30540673
C       -7.01384211      -3.24311358      -7.26592260
O       -6.32867034      -2.13034437      -6.84991046
N       -2.86029088      -3.88494950      -2.21339992
C       -2.07845034      -3.08483691      -1.46037937
H       -2.17947451      -0.32337998      -3.31556226
H       -4.40127750      -5.05181904      -3.61768223
H       -7.41901833      -6.56922137      -6.72378560
H       -9.36000150      -4.00265406      -9.59316907
H       -8.05140409      -2.07261598      -8.73567401
H       -5.71389776      -2.48136559      -6.15097912
H       -1.69351301      -3.55072052      -0.55980601
C       -9.22120661      -6.52607744      -8.69807933
C       -9.85289267      -7.46704650      -9.11037285
Br     -10.87427560      -8.98851389      -9.77701661
C       -1.78368897       1.78368897       1.78368897
C       -2.27318420       2.99110721       1.35904064
N       -3.04499356       3.78533889       2.12120650
C       -3.33984405       3.36075560       3.36567385
N       -4.10965599       4.14090298       4.22032330
N       -4.48641810       5.50434473       4.00150142
C       -5.03396078       6.05159902       5.09640743
H       -5.19384453       5.52917070       6.03502623
C       -5.45829350       7.46959920       5.05665494
C       -6.18225674       7.97161179       6.14673389
C       -6.60816313       9.30327579       6.16383652
C       -6.31761480      10.16092887       5.10372722
C       -5.59340662       9.68153047       4.01453144
C       -5.17319277       8.35269817       3.99698735
O       -4.46663975       7.94931018       2.89297524
N       -2.91004796       2.18402182       3.86457052
C       -2.14078036       1.42357782       3.05930843
H       -2.06153547       3.38519707       0.37168420
H       -4.14247718       3.77048585       5.15781574
H       -6.41854372       7.31449636       6.97898522
H       -6.64752826      11.19469610       5.11360028
H       -5.35452281      10.32799507       3.17717620
H       -4.30805278       6.98103293       3.05715677
H       -1.81390729       0.48872155       3.50141070
C       -7.35790601       9.79822890       7.28922847
C       -7.98581567      10.21275212       8.23174423
Br      -9.00109249      10.88300112       9.75571249
C        1.78368897      -1.78368897       1.78368897
C        2.31173424      -2.96882633       1.34277148
N        3.08430567      -3.76281464       2.10441864
C        3.33974080      -3.36136210       3.36517060
N        4.10781710      -4.14353419       4.21953098
N        4.52211558      -5.49216899       3.97797967
C        5.05685721      -6.05252399       5.07258603
H        5.18220828      -5.54911577       6.02671741
C        5.51581987      -7.45886060       5.00986718
C        6.22591332      -7.96976001       6.10492910
C        6.68305348      -9.29113274       6.10108924
C        6.43797394     -10.12972451       5.01457244
C        5.72815630      -9.64145349       3.91985874
C        5.27678359      -8.32276726       3.92332745
O        4.58677676      -7.90969681       2.81245159
N        2.87036016      -2.20727367       3.88100648
C        2.10214507      -1.44596324       3.07555830
H        2.13271473      -3.34401140       0.34169061
H        4.10984129      -3.79499509       5.16594240
H        6.42688752      -7.32740841       6.95772937
H        6.79221405     -11.15543793       5.00817265
H        5.52445111     -10.27309875       3.06214422
H        4.40126630      -6.94959790       2.99537829
H        1.74274643      -0.52985188       3.53144123
C        7.41791776      -9.79521921       7.23222641
C        8.03336660     -10.21739163       8.17955380
Br       9.02849531     -10.90000873       9.71130206
C       -0.00445707       0.01189536      -1.78238275
H       -0.66409135       0.67374010      -2.43557963
H        0.65740317      -0.63156657      -2.45157240
C       -0.90989263      -0.90692880      -0.91072765
C        0.90977584       0.90977584      -0.90977584
C       -0.00465871       1.77757030       0.00794375
H       -0.66225468       2.44313916      -0.64384735
H        0.64322798       2.43503045       0.67728295
C       -1.78241447       0.00034974      -0.00472694
H       -2.45427497      -0.65498947       0.64260836
H       -2.43311707       0.67328779      -0.65473579
C       -0.91132561       0.90220522       0.91563759
C       -0.01476271      -0.02253852       1.78660255
H       -0.67934791      -0.69751639       2.42135241
H        0.63392994       0.61504881       2.47327442
C        0.01484550      -1.77751727      -0.01636693
H        0.67870853      -2.42144646      -0.68295456
H       -0.62264859      -2.45592969       0.64226336
C        1.78714474       0.01002794       0.00389507
H        2.44202412       0.67113390       0.66197326
H        2.45385902      -0.65136977      -0.64189061
C        0.91606151      -0.90478549       0.90901405
