101
Properties=species:S:1:pos:R:3 pbc="F F F"
C        0.00000000       0.00000000       0.00000000
C        0.87378494       0.87378494      -0.87378494
C        1.59657427       0.37250598      -1.92453972
N        2.38363800       1.12966121      -2.70852766
C        2.45884229       2.44627623      -2.43144290
N        3.27331208       3.28625682      -3.18160130
N        4.24917216       2.87064791      -4.14273210
C        5.02714205       3.88986498      -4.53524813
H        4.92734779       4.91378079      -4.18720081
C        6.11201087       3.63314475      -5.50967996
C        6.79904007       4.73535550      -6.03649479
C        7.83303921       4.55271656      -6.95980760
Br       8.73826098       6.05871416      -7.66456742
C        8.20743221       3.27419251      -7.37093410
C        7.54032826       2.16623958      -6.85318861
C        6.50697180       2.35009579      -5.93609863
O        5.89411577       1.21530683      -5.46979050
N        1.77688536       3.02800073      -1.42404214
C        1.00005075       2.22522420      -0.66867959
H        1.57990581      -0.67889605      -2.18769491
H        3.33997070       4.21263461      -2.78846139
H        6.51675439       5.73794353      -5.72761530
H        9.00889136       3.12917591      -8.08804528
H        7.81202144       1.16117399      -7.15678658
H        5.17394705       1.56395236      -4.87863100
H        0.47342629       2.73293925       0.13203807
C       -0.87378494      -0.87378494      -0.87378494
C       -1.71517211      -0.35538801      -1.82305985
N       -2.50423253      -1.11295796      -2.60463638
C       -2.45755979      -2.44841156      -2.43059008
N       -3.26488746      -3.29306633      -3.18321641
N       -4.34407319      -2.88710963      -4.03136935
C       -5.07260009      -3.93379909      -4.44585599
H       -4.86822385      -4.96946149      -4.19064404
C       -6.24927070      -3.69361397      -5.31195090
C       -6.89209410      -4.80530963      -5.87348662
C       -8.00848888      -4.63845715      -6.69861735
Br      -8.85229318      -6.15582308      -7.45342630
C       -8.51002842      -3.36732530      -6.97520510
C       -7.88817619      -2.25086056      -6.42071970
C       -6.77283436      -2.41850763      -5.60182423
O       -6.21109243      -1.27591596      -5.09220471
N       -1.65423431      -3.04682133      -1.52787259
C       -0.88109315      -2.24259122      -0.77027018
H       -1.79896738       0.71067856      -2.00041585
H       -3.22960440      -4.24870264      -2.86275966
H       -6.51113202      -5.80200416      -5.66917705
H       -9.37572972      -3.23445749      -7.61592535
H       -8.25836778      -1.25123969      -6.62037454
H       -5.42112100      -1.60830655      -4.58710286
H       -0.25450021      -2.76454277      -0.05528449
C       -0.87378494       0.87378494       0.87378494
C       -0.36421854       1.64086440       1.88853703
N       -1.12316057       2.41837903       2.68028727
C       -2.45171032       2.42980119       2.45504991
N       -3.30217431       3.18824508       3.25075081
N       -2.94666668       3.84290905       4.47297644
C       -4.02506844       4.30458133       5.12260539
H       -5.04711623       4.21477024       4.76644292
C       -3.84355879       4.98750617       6.42377061
C       -4.95736605       5.61256082       7.00096350
C       -4.84482273       6.27195163       8.22878902
Br      -6.36197297       7.11757093       8.98199866
C       -3.62796420       6.31678877       8.90780584
C       -2.51142213       5.69558736       8.35274697
C       -2.62415797       5.04231576       7.12669249
O       -1.48463230       4.45477382       6.63980697
N       -3.03963413       1.71471361       1.47458049
C       -2.23407696       0.95273944       0.70713815
H        0.69465310       1.66411539       2.11924238
H       -4.27553447       3.00381832       3.06171391
H       -5.91166748       5.58833067       6.48231508
H       -3.53716236       6.82851087       9.86043933
H       -1.55335530       5.71610751       8.86051919
H       -1.76599947       4.09415734       5.75637361
H       -2.74824990       0.39160238      -0.06552481
C        0.87378494      -0.87378494       0.87378494
C        1.61982390      -1.90591022       0.36788585
N        2.39688735      -2.69791121       1.12702832
C        2.42975976      -2.45474619       2.45205547
N        3.18896827      -3.24918443       3.30301750
N        3.82191320      -4.48508680       2.95555217
C        4.28955257      -5.12626492       4.03643767
H        4.21875720      -4.75498133       5.05459086
C        4.95208296      -6.43910871       3.86364390
C        5.58455203      -7.00964156       4.97669677
C        6.22550764      -8.24789288       4.87216286
Br       7.08167777      -8.99195686       6.38790792
C        6.24423717      -8.94400592       3.66431572
C        5.61528075      -8.39569354       2.54878217
C        4.98042169      -7.15929496       2.65344957
O        4.38387020      -6.67992230       1.51542059
N        1.73631906      -1.45654716       3.03606201
C        0.97381658      -0.68970055       2.23043742
H        1.62527418      -2.15134207      -0.68791158
H        3.02062112      -3.04435029       4.27609529
H        5.58060517      -6.47773434       5.92397372
H        6.74160774      -9.90477767       3.57972716
H        5.61561463      -8.91672668       1.59764070
H        4.03926874      -5.78782772       1.78943395
H        0.43044154       0.09759519       2.74148111
