189
Properties=species:S:1:pos:R:3 pbc="F F F"
C        0.00000000       0.00000000       0.00000000
C        3.25607306       3.30332068      -8.76629809
N        2.56981684       4.51943761      -8.29614068
C        1.93428634       4.21370499      -6.98670207
C        1.14363990       5.39819384      -6.37957258
N        0.40951708       5.04227953      -5.12281448
C       -0.20084742       6.28266201      -4.61398421
N        1.14432988       4.35220294      -4.20965097
C        0.45160237       3.46711674      -3.56356091
C        1.10298202       2.56885150      -2.59230067
C        0.29003167       1.75805255      -1.79352402
C        0.88246054       0.88246054      -0.88246054
C        2.27064425       0.80176056      -0.76725177
C        3.07830839       1.61015837      -1.56760824
C        2.49614398       2.49270216      -2.47430198
O        3.35730065       3.24442343      -3.22388912
N        3.53536006       5.61021011      -8.13307108
C        3.82501390       6.19149646      -9.30786170
H        3.40113276       5.88172973     -10.25925126
C        4.75332615       7.34262428      -9.34097899
C        5.23776273       7.76827839     -10.58536316
C        6.10857451       8.85820899     -10.67133944
C        6.50870917       9.54829403      -9.52687764
C        6.03344945       9.14273670      -8.28243860
C        5.16854564       8.05339605      -8.19790810
O        4.73566428       7.70572601      -6.94358993
H        3.68933758       3.44875954      -9.76232074
H        2.54698464       2.47342161      -8.85864475
H        4.05965498       2.99350239      -8.08682166
H        2.69776669       3.87792891      -6.27109941
H        1.23283432       3.37996958      -7.12712693
H        0.41120804       5.74253872      -7.12038120
H        1.83002621       6.22730337      -6.17151436
H       -0.86144871       6.73458969      -5.36178626
H        0.56041472       7.01540347      -4.32156068
H       -0.81611174       6.07007679      -3.73283655
H       -0.63555629       3.34457006      -3.72320919
H       -0.79135038       1.81017603      -1.87922533
H        2.73414305       0.11585220      -0.06360377
H        4.16114330       1.55380144      -1.49341793
H        2.82593061       3.81774876      -3.82703575
H        4.93443288       7.23776155     -11.48368610
H        7.18403137      10.39458920      -9.59215790
H        6.32881555       9.66250327      -7.37691588
H        4.19171643       6.89191136      -7.11434416
C        6.60165940       9.27746107     -11.95768893
C        7.01461800       9.62858468     -13.03500662
Br       7.68233711      10.19632187     -14.77693821
C       -7.68277534      -6.07199133      -1.57092516
N       -8.14645239      -4.90192849      -2.33701425
C       -7.14192107      -3.81708176      -2.17569057
C       -7.51255550      -2.50314013      -2.90571070
N       -6.55516160      -1.38227569      -2.63717380
C       -6.97667705      -0.24539299      -3.47372876
N       -5.24132430      -1.71602048      -2.74883901
C       -4.48704033      -1.10739668      -1.88784301
C       -3.04592367      -1.40973169      -1.80847884
C       -2.24540270      -0.60338990      -0.99281563
C       -0.88246054      -0.88246054      -0.88246054
C       -0.31490977      -1.95760709      -1.56713971
C       -1.11711230      -2.76128777      -2.37767493
C       -2.47692505      -2.48599956      -2.50022351
O       -3.19272379      -3.32405862      -3.30883080
N       -8.27461530      -5.24852936      -3.75549660
C       -9.42127129      -5.90170670      -4.00139407
H      -10.15479410      -6.14864380      -3.23867585
C       -9.74882560      -6.30047455      -5.38762927
C      -10.81022980      -7.19368811      -5.58748638
C      -11.16655697      -7.59280480      -6.87876118
C      -10.48157834      -7.10879584      -7.99350667
C       -9.42758500      -6.21660228      -7.81443748
C       -9.07086874      -5.82276407      -6.52621698
O       -8.02546949      -4.94125414      -6.41825660
H       -8.41779849      -6.88434897      -1.59827040
H       -7.55193636      -5.81238720      -0.51472744
H       -6.72948645      -6.46183210      -1.94866047
H       -6.15897263      -4.16444078      -2.52338160
H       -7.04513600      -3.58947684      -1.10531799
H       -8.51033632      -2.19085698      -2.57293465
H       -7.55763870      -2.68541023      -3.98579500
H       -8.01285289       0.03954622      -3.26162057
H       -6.88143858      -0.47427748      -4.54166281
H       -6.35584623       0.63236663      -3.26332199
H       -4.89156295      -0.35913503      -1.18152498
H       -2.67876959       0.23285881      -0.45214020
H        0.74455998      -2.18091198      -1.47724702
H       -0.69031314      -3.60593433      -2.91211520
H       -4.13528308      -3.03010002      -3.30533202
H      -11.35025871      -7.57870180      -4.72692003
H      -10.75733509      -7.41727110      -8.99617228
H       -8.87877123      -5.82488857      -8.66457490
H       -7.91390262      -4.84884022      -5.43522910
C      -12.25549670      -8.51648798      -7.06482471
C      -13.16748373      -9.29007265      -7.22065292
Br     -14.64208962     -10.54089362      -7.47261395
C       -1.45975131       6.71060305       7.15533747
N       -1.88296398       7.51011221       5.99231894
C       -1.67546490       6.69050906       4.76871945
C       -2.05025597       7.41709615       3.45405421
N       -1.72409985       6.62721162       2.22329962
C       -2.22911040       7.39480688       1.07188153
N       -2.12029572       5.32653781       2.25935026
C       -1.29269249       4.52609715       1.66349037
C       -1.51960766       3.06908343       1.67544311
C       -0.70329693       2.26646120       0.87185011
C       -0.88246054       0.88246054       0.88246054
C       -1.85681024       0.29366372       1.68918262
C       -2.66735106       1.09731224       2.49141171
C       -2.50124389       2.48013827       2.48176597
O       -3.33142418       3.19427631       3.29991272
N       -3.30018785       7.86394204       6.11451135
C       -3.47763380       8.91032292       6.93641534
H       -2.66894284       9.42133945       7.45183145
C       -4.84087575       9.44116999       7.15488367
C       -5.03703107      10.35564760       8.19872562
C       -6.30391303      10.89488315       8.43932677
C       -7.39581783      10.54207710       7.64598591
C       -7.21867755       9.63880337       6.60114384
C       -5.95588035       9.09892712       6.36504233
O       -5.84806099       8.21660709       5.32031215
H       -1.52786874       7.28875454       8.08379458
H       -0.41012644       6.41324275       7.05568181
H       -2.06346002       5.80239345       7.27412556
H       -2.24653593       5.75471484       4.84554424
H       -0.61295448       6.41774182       4.70923453
H       -1.49821292       8.36434016       3.41157489
H       -3.12159891       7.64957896       3.45766607
H       -1.79257622       8.39902938       1.04332165
H       -3.32177430       7.48163664       1.09396793
H       -1.95193769       6.90056833       0.13429558
H       -0.39130866       4.89834454       1.14256976
H        0.06104051       2.71498562       0.24410587
H       -1.99341309      -0.78408118       1.70426710
H       -3.42627859       0.65244513       3.12963895
H       -3.11000232       4.15212496       3.20858783
H       -4.19452157      10.63693801       8.82442095
H       -8.37940657      10.96013491       7.83123699
H       -8.05124021       9.34804372       5.96895077
H       -4.89977334       7.92463836       5.37356025
C       -6.48833419      11.82800054       9.52047466
C       -6.64278692      12.60948635      10.42593603
Br      -6.89252390      13.87308281      11.88999047
C        8.69731577      -3.92694220       2.70143387
N        8.45761923      -3.05962161       3.86815429
C        7.19778760      -2.30542664       3.63147917
C        6.83048801      -1.32177910       4.76913922
N        5.62722325      -0.48226847       4.46511937
C        5.34407482       0.31758263       5.66930662
N        4.56161110      -1.17037467       3.97419802
C        3.89128851      -0.50435802       3.08663349
C        2.75193010      -1.12575212       2.38645198
C        1.95322505      -0.31430592       1.57407727
C        0.88246054      -0.88246054       0.88246054
C        0.60744353      -2.24647639       0.98573665
C        1.40798919      -3.05316393       1.79492188
C        2.47417614      -2.49383984       2.49513215
O        3.21185124      -3.35324954       3.26051242
N        8.32522978      -3.87303610       5.08037537
C        9.52378734      -4.23946202       5.56112271
H       10.47051336      -3.97185507       5.09974532
C        9.59638949      -5.03363444       6.80690549
C       10.82324871      -5.61771956       7.15043601
C       10.94675864      -6.36833439       8.32302992
C        9.85883116      -6.54733171       9.17771798
C        8.63338207      -5.97009932       8.85514336
C        8.51072604      -5.22542530       7.68369846
O        7.27800973      -4.68246778       7.42450272
H        9.65038924      -4.46065492       2.78937370
H        8.76396449      -3.32936041       1.78572610
H        7.90136780      -4.67006254       2.56854867
H        6.36739469      -3.00738984       3.47201048
H        7.31055815      -1.72169471       2.70767797
H        7.68340823      -0.65260045       4.93811928
H        6.65207830      -1.88285688       5.69390876
H        6.20925465       0.92678638       5.95245896
H        5.06245172      -0.31751961       6.51740754
H        4.51593832       1.00940512       5.48026840
H        4.15236032       0.53508872       2.81495136
H        2.16215260       0.74757388       1.48347226
H       -0.22138075      -2.69220027       0.44277950
H        1.20973851      -4.11835105       1.88027312
H        3.93513149      -2.84052989       3.69505374
H       11.67739155      -5.48660445       6.49188453
H        9.95336616      -7.12915499      10.08825732
H        7.77168721      -6.09364846       9.50289903
H        7.40595604      -4.25564988       6.53636603
C       12.21328456      -6.96679755       8.65672728
C       13.27400002      -7.46801044       8.93619883
Br      14.98908721      -8.27842930       9.38808067
