157
Properties=species:S:1:pos:R:3 pbc="F F F"
C        0.00000000       0.00000000       0.00000000
C        0.88149746       0.88149746      -0.88149746
C        2.26638247       0.79319654      -0.77842043
C        3.07153891       1.60746958      -1.57907675
C        2.50154159       2.50843526      -2.49391390
C        1.10663757       2.57348563      -2.59228340
C        0.29723050       1.76907441      -1.78241972
C        3.36442417       3.33618984      -3.33490185
N        4.46535490       2.79959173      -3.96814226
H        4.76721007       1.83993649      -3.89284729
C        5.11243425       3.77361444      -4.68318257
N        4.45793011       4.91075314      -4.56863364
C        3.37440816       4.66308086      -3.74557022
C        2.43666318       5.72628974      -3.41318485
C        1.82285242       5.82633089      -2.15812593
C        0.92728792       6.86647991      -1.88412940
C        0.65840407       7.82560417      -2.85845471
Br      -0.54594350       9.23353377      -2.48437313
C        1.27840431       7.75829056      -4.10268115
C        2.16495024       6.71253169      -4.37524902
C        6.37115636       3.55548393      -5.39831693
C        6.73971433       2.29124095      -5.88677593
C        7.96806772       2.10662897      -6.52804014
C        8.83797841       3.18236630      -6.68835572
C        8.47095849       4.43739395      -6.21964400
O        9.35111200       5.46372912      -6.39691969
C        7.24754380       4.63418504      -5.58451856
H        2.72951820       0.10308498      -0.07787920
H        4.15135648       1.53902407      -1.46602201
H        0.63270665       3.25019936      -3.30081481
H       -0.78403837       1.84254012      -1.86528844
H        2.04053772       5.10678908      -1.37339617
H        0.45420885       6.92118505      -0.90726428
H        1.08621084       8.50928208      -4.86407251
H        2.65209160       6.66917640      -5.34858459
H        6.07535101       1.43668929      -5.79263692
H        8.24564551       1.12554695      -6.90464661
H        9.79634700       3.04530258      -7.18132398
H        8.95408351       6.27447303      -6.03645393
H        6.96487764       5.61698524      -5.21504349
C       -0.88149746      -0.88149746      -0.88149746
C       -2.16652962      -0.46101345      -1.21045637
C       -2.97535476      -1.27333164      -2.00939884
C       -2.50525599      -2.50572103      -2.49291374
C       -1.20515166      -2.90543481      -2.16182013
C       -0.39730782      -2.10054023      -1.35087658
C       -3.36273406      -3.32952942      -3.34325238
N       -4.08866782      -2.77074922      -4.37367185
H       -4.10538567      -1.78907474      -4.60553344
C       -4.81627425      -3.74176478      -5.01119223
N       -4.56577264      -4.91143779      -4.46010645
C       -3.66882486      -4.68144650      -3.43278788
C       -3.18176345      -5.78167031      -2.61270402
C       -2.91951110      -5.64412673      -1.24367142
C       -2.45193597      -6.73060030      -0.49536096
C       -2.26564491      -7.96746721      -1.10935083
Br      -1.64077890      -9.43541107      -0.09577342
C       -2.54563910      -8.13090033      -2.46283659
C       -3.00350377      -7.04079879      -3.20842840
C       -5.76389861      -3.46799798      -6.09306064
C       -5.62807332      -2.35315008      -6.93650780
C       -6.57370139      -2.09570195      -7.93333349
C       -7.66175123      -2.94942675      -8.09752244
C       -7.79191601      -4.06113956      -7.27494087
O       -8.87126374      -4.87160333      -7.46889373
C       -6.85307785      -4.33061098      -6.28255857
H       -2.55124487       0.48880667      -0.84804419
H       -3.98470753      -0.93628710      -2.23540795
H       -0.80469907      -3.84753525      -2.53148650
H        0.60520795      -2.43374515      -1.09525300
H       -3.08608655      -4.69693171      -0.73770470
H       -2.24538613      -6.60096424       0.56369219
H       -2.41716578      -9.09484195      -2.94755770
H       -3.22723744      -7.17682786      -4.26578730
H       -4.78116329      -1.67874117      -6.84477277
H       -6.46100141      -1.23171399      -8.58312368
H       -8.40321124      -2.75289743      -8.86686489
H       -8.81944909      -5.60848513      -6.83707625
H       -6.95996129      -5.19941565      -5.63752944
C       -0.88149746       0.88149746       0.88149746
C       -0.96689160       2.24644206       0.62466578
C       -1.76658270       3.05327252       1.43823002
C       -2.49324601       2.50328534       2.50735941
C       -2.40456313       1.12603009       2.74181339
C       -1.59414103       0.31731308       1.93727052
C       -3.33852873       3.36415566       3.33283146
N       -4.16386278       4.30873484       2.76049127
H       -4.23679909       4.49204718       1.77114757
C       -4.84092321       4.98990584       3.73840222
N       -4.51578756       4.50327267       4.91825666
C       -3.59435426       3.49709934       4.69160564
C       -3.02674603       2.74657425       5.80281749
C       -1.70034543       2.29652083       5.81044298
C       -1.19826806       1.57800589       6.90162328
C       -2.01544657       1.32541760       8.00159879
Br      -1.33369157       0.36096848       9.47730333
C       -3.32826248       1.78697720       8.02413634
C       -3.82841427       2.49605061       6.92826607
C       -5.73108940       6.12139407       3.47247375
C       -6.40248718       6.26773800       2.24750602
C       -7.21219467       7.38194224       2.00859991
C       -7.35963758       8.35842232       2.99064051
C       -6.70893634       8.21018251       4.20887758
O       -6.87998769       9.18852371       5.14324941
C       -5.90453101       7.10170646       4.46000993
H       -0.41387370       2.69383926      -0.19723058
H       -1.80091579       4.12129098       1.23419580
H       -2.96559003       0.66538017       3.55275063
H       -1.52931143      -0.74807931       2.14255808
H       -1.03633768       2.50783074       4.97655454
H       -0.16909212       1.22935776       6.88420831
H       -3.96897425       1.60744399       8.88314720
H       -4.85462556       2.86040436       6.95482268
H       -6.32149647       5.51456890       1.46861186
H       -7.72972436       7.48747750       1.05863722
H       -7.98334549       9.22945336       2.81017471
H       -6.38236581       8.94169728       5.94094738
H       -5.39318353       6.99057037       5.41315249
C        0.88149746      -0.88149746       0.88149746
C        0.71526224      -0.85985427       2.26288294
C        1.52926020      -1.66004641       3.06877862
C        2.50799385      -2.49357516       2.50232175
C        2.65131036      -2.51118805       1.10990819
C        1.84685942      -1.70106417       0.30080104
C        3.33464067      -3.33646548       3.36440970
N        2.77695320      -4.05678338       4.39935232
H        1.80012011      -4.04861956       4.65125417
C        3.75378232      -4.75451183       5.06093712
N        4.91555589      -4.54460828       4.47715272
C        4.67984909      -3.67703455       3.42617561
C        5.77069920      -3.23814790       2.56729068
C        5.83324195      -1.94758041       2.02648690
C        6.90211692      -1.57045077       1.20532954
C        7.92636446      -2.47688666       0.93921184
Br       9.37258781      -1.96365005      -0.16427447
C        7.89553185      -3.75528183       1.48856234
C        6.82145647      -4.13078236       2.30049213
C        3.50990319      -5.54853278       6.26652126
C        2.25702053      -6.12211743       6.53859324
C        2.04407124      -6.83905007       7.71961552
C        3.08000765      -6.99064929       8.63804348
C        4.32471220      -6.43732201       8.36596223
O        5.31179059      -6.60898413       9.29098609
C        4.54988590      -5.72614565       7.19021585
H       -0.03579544      -0.22305821       2.72321960
H        1.39824114      -1.61056062       4.14760081
H        3.39001560      -3.15605604       0.63764918
H        1.98129238      -1.72010853      -0.77761071
H        5.06103689      -1.21481990       2.24486617
H        6.92745789      -0.56741858       0.78778171
H        8.69647154      -4.46453369       1.29856021
H        6.80650130      -5.13047800       2.73287330
H        1.43452443      -6.03628040       5.83387240
H        1.07211117      -7.28125730       7.92247060
H        2.92040872      -7.54231086       9.56025398
H        6.12105134      -6.18518817       8.95877097
H        5.52421953      -5.29067807       6.98200878
