186
Properties=species:S:1:pos:R:3 pbc="F F F"
C        1.79140148       1.79140148      -1.79140148
C        3.17628649       1.70310057      -1.68832445
C        3.98144293       2.51737360      -2.48898078
C        3.41144561       3.41833928      -3.40381792
C        2.01654159       3.48338966      -3.50218743
C        1.20713453       2.67897843      -2.69232375
C        4.27432820       4.24609386      -4.24480587
N        5.37525893       3.70949576      -4.87804628
H        5.67711410       2.74984051      -4.80275131
C        6.02233827       4.68351847      -5.59308660
N        5.36783414       5.82065716      -5.47853766
C        4.28431218       5.57298489      -4.65547424
C        3.34656721       6.63619376      -4.32308888
C        2.73275645       6.73623492      -3.06802995
C        1.83719194       7.77638394      -2.79403342
C        1.56830810       8.73550820      -3.76835874
C        2.18830833       8.66819459      -5.01258517
C        3.07485426       7.62243572      -5.28515305
C        7.28106039       4.46538795      -6.30822096
C        7.64961835       3.20114497      -6.79667995
C        8.87797174       3.01653299      -7.43794417
C        9.74788243       4.09227032      -7.59825974
C        9.38086251       5.34729797      -7.12954803
O       10.26101602       6.37363315      -7.30682371
C        8.15744782       5.54408906      -6.49442258
H        3.63942222       1.01298901      -0.98778322
H        5.06126051       2.44892810      -2.37592604
H        1.54261067       4.16010338      -4.21071883
H        0.12586566       2.75244415      -2.77519247
H        2.95044174       6.01669311      -2.28330019
H        1.36411288       7.83108908      -1.81716830
H        1.99611486       9.41918610      -5.77397654
H        3.56199563       7.57908043      -6.25848861
H        6.98525504       2.34659332      -6.70254094
H        9.15554953       2.03545098      -7.81455064
H       10.70625102       3.95520661      -8.09122800
H        9.86398753       7.18437706      -6.94635795
H        7.87478167       6.52688927      -6.12494752
C        0.65078133       9.80813301      -3.48336637
C       -0.11764734      10.70645628      -3.24468526
Br      -1.36013150      12.15896905      -2.85875809
C       -1.79140148      -1.79140148      -1.79140148
C       -2.71899521      -2.64565675      -1.20305955
C       -3.51825666      -3.45865416      -2.01088650
C       -3.40429901      -3.41877924      -3.41052458
C       -2.47446567      -2.54353036      -3.98412264
C       -1.66310713      -1.73775208      -3.17757750
C       -4.26492445      -4.26449246      -4.23581102
N       -5.61257530      -4.38122809      -3.96899758
H       -6.09377057      -3.93048736      -3.20544799
C       -6.19421845      -5.23325808      -4.87146681
N       -5.28775404      -5.64618411      -5.73309081
C       -4.09213079      -5.05780305      -5.36283747
C       -2.87446877      -5.31141974      -6.11996134
C       -1.61520210      -5.40761288      -5.51420634
C       -0.47172573      -5.65261604      -6.28326754
C       -0.58586322      -5.82509204      -7.66121976
C       -1.83166281      -5.75921710      -8.27820817
C       -2.96981817      -5.50504450      -7.50758036
C       -7.59793754      -5.64484349      -4.81188827
C       -8.58563020      -4.83715347      -4.22465960
C       -9.91005389      -5.27729598      -4.14509903
C      -10.25989946      -6.52635992      -4.65215311
C       -9.28890947      -7.32205030      -5.24674874
O       -9.67310208      -8.53761256      -5.73075825
C       -7.96778124      -6.89148667      -5.33669156
H       -2.82487569      -2.69302392      -0.12229484
H       -4.22057992      -4.13587798      -1.52965674
H       -2.37061164      -2.47731148      -5.06550977
H       -0.93889225      -1.07313374      -3.64147628
H       -1.50645567      -5.30626293      -4.43771644
H        0.49746047      -5.71434361      -5.79548712
H       -1.93284124      -5.90643890      -9.34999736
H       -3.94277166      -5.46133981      -7.99545320
H       -8.34742726      -3.85085426      -3.83610779
H      -10.66909934      -4.64595729      -3.69049452
H      -11.28622696      -6.87705726      -4.58940142
H       -8.89782368      -8.96900719      -6.12789168
H       -7.20916217      -7.51841175      -5.79904454
C        0.59069337      -6.08237465      -8.45059942
C        1.57605951      -6.29784883      -9.11170489
Br       3.16931323      -6.64625235     -10.18065652
C       -1.79140148       1.79140148       1.79140148
C       -1.36201010       3.06924741       2.13645401
C       -2.16564164       3.87106440       2.95109128
C       -3.40636229       3.40768706       3.41955348
C       -3.82681307       2.12431278       3.05099282
C       -3.01843967       1.31366233       2.24633470
C       -4.23862196       4.27198341       4.25462256
N       -4.42642736       5.60024235       3.93613125
H       -4.00915582       6.07230531       3.14824478
C       -5.23217399       6.19451425       4.87225510
N       -5.60301184       5.29953391       5.76448322
C       -5.00579790       4.10632077       5.40065264
C       -5.21534325       2.90068393       6.18982267
C       -4.21339489       1.94105304       6.38257339
C       -4.46115312       0.79682493       7.14963125
C       -5.70728418       0.61800794       7.74688290
C       -6.70733431       1.57296223       7.58879155
C       -6.45861330       2.70963008       6.81419965
C       -5.55407221       7.62270513       4.87789195
C       -5.55750359       8.38907750       3.70086218
C       -5.82721577       9.76000433       3.74522880
C       -6.09709890      10.37702641       4.96428718
C       -6.10900581       9.61989736       6.12880533
O       -6.37796838      10.26237648       7.30112803
C       -5.84746243       8.25265074       6.09584629
H       -0.40594240       3.44892229       1.78532977
H       -1.80055128       4.85779056       3.22777280
H       -4.78880124       1.73990508       3.38472657
H       -3.35723693       0.31565831       1.98060703
H       -3.22495706       2.07435490       5.95112308
H       -3.67349419       0.05939993       7.27947614
H       -7.67757798       1.44957324       8.06212628
H       -7.24317750       3.45658447       6.69980270
H       -5.36808069       7.93344114       2.73286746
H       -5.82947384      10.34616836       2.82990895
H       -6.30272781      11.44293687       5.00702095
H       -6.36754055       9.60765251       8.01952948
H       -5.85347074       7.66345327       7.00969445
C       -5.95917410      -0.55707722       8.54018382
C       -6.17013190      -1.54121103       9.20457334
Br      -6.51123282      -3.13247218      10.27883500
C        1.79140148      -1.79140148       1.79140148
C        1.21744024      -2.52526103       2.82501024
C        2.02696416      -3.32405131       3.63678185
C        3.41235821      -3.40342801       3.41781661
C        3.96927157      -2.66786408       2.36498302
C        3.16339457      -1.85649215       1.55854999
C        4.23621754      -4.26108903       4.26792136
N        3.83083679      -5.53791603       4.59404815
H        2.96273423      -5.96249716       4.30447453
C        4.76428328      -6.13060313       5.40405693
N        5.77383529      -5.30506962       5.58812405
C        5.47147978      -4.14824506       4.89304647
C        6.39351083      -3.02125185       4.89108716
C        5.95826951      -1.68989736       4.88885445
C        6.88217795      -0.63851288       4.88691847
C        8.24776707      -0.91449334       4.90991463
C        8.69969265      -2.23053134       4.93886410
C        7.77364402      -3.27754830       4.93125070
C        4.59560092      -7.45561027       6.00345811
C        3.79382661      -8.44410539       5.40951127
C        3.61861320      -9.68505751       6.02877819
C        4.24319275      -9.95019326       7.24502649
C        5.04865154      -8.98052833       7.82852864
O        5.64204481      -9.28032519       9.01910289
C        5.23497295      -7.74307909       7.21790742
H        0.14778490      -2.47962006       3.01278949
H        1.56125472      -3.87133839       4.45352154
H        5.03678480      -2.71779812       2.15884997
H        3.61630516      -1.28386741       0.75332970
H        4.89819674      -1.45110246       4.90113584
H        6.52433330       0.38758729       4.87562425
H        9.76215239      -2.45585962       4.97126549
H        8.13354259      -4.30524962       4.96077246
H        3.30781246      -8.27376493       4.45281191
H        2.99776406     -10.44552584       5.56226125
H        4.10761908     -10.91055925       7.73450730
H        6.18155772      -8.51971278       9.29345204
H        5.86280775      -6.98458342       7.67922728
C        9.19719740       0.16817506       4.91325836
C        9.99234531       1.07490984       4.91605873
Br      11.27803223       2.54102329       4.92058670
C       -0.00445707       0.01189536      -1.78238275
H       -0.66409135       0.67374010      -2.43557963
H        0.65740317      -0.63156657      -2.45157240
C       -0.90989263      -0.90692880      -0.91072765
C        0.90977584       0.90977584      -0.90977584
C       -0.00465871       1.77757030       0.00794375
H       -0.66225468       2.44313916      -0.64384735
H        0.64322798       2.43503045       0.67728295
C       -1.78241447       0.00034974      -0.00472694
H       -2.45427497      -0.65498947       0.64260836
H       -2.43311707       0.67328779      -0.65473579
C       -0.91132561       0.90220522       0.91563759
C       -0.01476271      -0.02253852       1.78660255
H       -0.67934791      -0.69751639       2.42135241
H        0.63392994       0.61504881       2.47327442
C        0.01484550      -1.77751727      -0.01636693
H        0.67870853      -2.42144646      -0.68295456
H       -0.62264859      -2.45592969       0.64226336
C        1.78714474       0.01002794       0.00389507
H        2.44202412       0.67113390       0.66197326
H        2.45385902      -0.65136977      -0.64189061
C        0.91606151      -0.90478549       0.90901405
