182
Properties=species:S:1:pos:R:3 pbc="F F F"
C        1.79113165       1.79113165      -1.79113165
C        2.62180462       1.20870983      -2.74280490
C        3.42677673       2.01845367      -3.55374112
C        3.42158673       3.42129952      -3.42825356
C        2.56271882       3.97676990      -2.45893512
C        1.75579162       3.17328822      -1.64532213
C        4.25721461       4.29145920      -4.28523767
N        3.76042982       5.53006914      -4.52725428
C        4.41242334       6.37147047      -5.34676876
C        3.84575691       7.61442799      -5.59731901
C        4.43678164       8.53712609      -6.46305263
C        5.62032902       8.21240006      -7.10871752
C        6.21406169       6.97538367      -6.86697335
C        5.63290562       6.04665101      -5.96433235
C        6.16951966       4.78284222      -5.63504915
C        5.47261812       3.89419748      -4.81335838
C        7.49277356       4.31998106      -6.11936941
O        7.55364325       3.22592397      -6.66451410
N        8.53770607       5.17488490      -5.82192525
C        9.89835823       5.01327977      -6.15630065
C       10.39046850       3.95577901      -6.92482016
C       11.75687611       3.85985881      -7.21068463
C       12.64322826       4.82205623      -6.73250942
C       12.15515917       5.88151640      -5.97361738
Br      13.34990259       7.19425801      -5.32075613
C       10.79232732       5.98359629      -5.68694966
H        2.64709417       0.12965312      -2.87112059
H        4.04369283       1.53002240      -4.30562373
H        2.51594476       5.05824676      -2.33413555
H        1.10520231       3.63974280      -0.91028367
H        2.90622090       7.86870100      -5.11132288
H        3.95929873       9.49762200      -6.64079137
H        6.07530590       8.91280562      -7.80516217
H        7.12568659       6.73310846      -7.41169452
H        5.89759693       2.92098741      -4.58848623
H        8.31208343       5.99427861      -5.26992500
H        9.73566257       3.18515768      -7.32140608
H       12.12492043       3.02838022      -7.80749838
H       13.70317155       4.73632970      -6.95582951
H       10.43621553       6.81949656      -5.09168212
C       -1.79113165      -1.79113165      -1.79113165
C       -1.63791976      -3.17337392      -1.76202566
C       -2.44991350      -3.98123732      -2.56782069
C       -3.42524247      -3.42665374      -3.41924362
C       -3.55731098      -2.02368036      -3.41743251
C       -2.74907303      -1.21064097      -2.61468797
C       -4.29902690      -4.26693972      -4.26794486
N       -5.52565312      -3.75475488      -4.53734526
C       -6.41618196      -4.46988120      -5.24459941
C       -7.67381793      -3.92207776      -5.46160821
C       -8.67172437      -4.60975126      -6.15548473
C       -8.41791611      -5.88443367      -6.63909682
C       -7.16098799      -6.45257818      -6.44285254
C       -6.13393420      -5.74507154      -5.76488324
C       -4.82485132      -6.22350473      -5.53905498
C       -3.91247739      -5.49610928      -4.77158731
C       -4.32873336      -7.50402097      -6.09936971
O       -3.80917827      -8.30317194      -5.33173112
N       -4.45268303      -7.60961857      -7.47221463
C       -4.08204320      -8.70164431      -8.28425115
C       -3.57864420      -9.90581993      -7.78660354
C       -3.22696455     -10.94355607      -8.65689893
C       -3.37780920     -10.78725465     -10.03273006
C       -3.88693920      -9.59196700     -10.53138676
Br      -4.09720144      -9.36993573     -12.39777956
C       -4.24158019      -8.55369649      -9.66759660
H       -0.89920731      -3.63603320      -1.11262737
H       -2.32062166      -5.05967647      -2.49904084
H       -4.30688349      -1.55038251      -4.05106106
H       -2.88274140      -0.13239460      -2.64009278
H       -7.88809769      -2.93114722      -5.06699987
H       -9.64727304      -4.15161236      -6.29882671
H       -9.19614299      -6.43941722      -7.15771348
H       -6.99885874      -7.46719709      -6.80443373
H       -2.91722424      -5.89276097      -4.59708537
H       -4.81715234      -6.79938147      -7.95975322
H       -3.44775933     -10.07312681      -6.72134019
H       -2.83300003     -11.87384117      -8.25395784
H       -3.09747348     -11.59710946     -10.70074783
H       -4.63584530      -7.63004799     -10.08150092
C       -1.79113165       1.79113165       1.79113165
C       -3.00627530       1.30486514       2.26217889
C       -3.81206813       2.11273186       3.07417152
C       -3.42387349       3.41970098       3.42756535
C       -2.18373986       3.87633552       2.93834846
C       -1.37375023       3.07417621       2.12647554
C       -4.25819041       4.28158812       4.29413295
N       -3.58431392       5.18593665       5.04750268
C       -4.24586918       5.96968970       5.91510369
C       -3.51010232       6.85268409       6.69471750
C       -4.11167330       7.67897424       7.64631283
C       -5.48379209       7.61937250       7.83828201
C       -6.24569969       6.74864563       7.06207339
C       -5.64231797       5.92912968       6.07244133
C       -6.32960423       5.03632481       5.22148200
C       -5.63791858       4.19512632       4.34712907
C       -7.80901057       4.93662707       5.18648640
O       -8.31225249       3.82727728       5.30455155
N       -8.45388106       6.13543503       4.94520013
C       -9.84411510       6.35917269       4.86465087
C      -10.80562715       5.37210587       5.09333465
C      -12.16897341       5.66941996       4.98902618
C      -12.58313001       6.95727992       4.65738398
C      -11.62802376       7.94513039       4.43713880
Br     -12.17967483       9.69746695       3.98777495
C      -10.26616774       7.65481302       4.54189252
H       -3.33484629       0.29889297       2.01412862
H       -4.74313004       1.68969330       3.44651563
H       -1.83617403       4.87651232       3.19564071
H       -0.42296331       3.46189193       1.77037354
H       -2.43055519       6.89033663       6.56535296
H       -3.50175954       8.35201102       8.24394154
H       -5.95927184       8.23913541       8.59486644
H       -7.31642112       6.69833778       7.25573067
H       -6.18742103       3.50452951       3.71512003
H       -7.86516339       6.94142847       4.76969517
H      -10.52863294       4.35565689       5.35793649
H      -12.90529560       4.88885592       5.16664752
H      -13.64397836       7.17721502       4.57413738
H       -9.54015421       8.44299664       4.36424335
C        1.79113165      -1.79113165       1.79113165
C        1.45557130      -3.12608530       1.99166274
C        2.26716883      -3.93484409       2.79695859
C        3.42415066      -3.42741094       3.41957823
C        3.73703594      -2.07299799       3.18838991
C        2.93025744      -1.25933613       2.38480841
C        4.29853035      -4.27165933       4.26372180
N        5.60818103      -3.91999429       4.28957792
C        6.49397459      -4.66267082       4.97401716
C        7.83075249      -4.28765764       4.93909378
C        8.82332658      -5.02142281       5.59221097
C        8.48080897      -6.16862612       6.29201151
C        7.14519976      -6.56095656       6.35026239
C        6.12907016      -5.80126880       5.71355003
C        4.74963777      -6.10169069       5.73608257
C        3.83494396      -5.35157694       4.99365308
C        4.18054041      -7.20792867       6.54365497
O        3.45075493      -8.01292070       5.98040570
N        4.49571436      -7.15031830       7.88848357
C        4.11230516      -8.05787621       8.89775729
C        3.38611953      -9.22678639       8.65816175
C        3.03720625     -10.07638787       9.71382543
C        3.41348634      -9.76584690      11.01846068
C        4.14427557      -8.60637934      11.25963804
Br       4.66154960      -8.17616714      13.02719998
C        4.49714385      -7.75584997      10.20987945
H        0.57300794      -3.55276516       1.52209478
H        1.98883856      -4.98094775       2.90955264
H        4.62924906      -1.63960203       3.63947597
H        3.20629264      -0.21976424       2.22917189
H        8.11083150      -3.40083731       4.37457597
H        9.86083664      -4.70126194       5.53561352
H        9.24902552      -6.76212514       6.78212303
H        6.90812119      -7.48319698       6.87917140
H        2.78147012      -5.61259550       5.01300495
H        5.03265224      -6.34770395       8.19593085
H        3.07490909      -9.51045029       7.65686694
H        2.46843585     -10.98108404       9.51127915
H        3.13374031     -10.42945338      11.83213707
H        5.06699704      -6.85626576      10.42413140
C       -0.00445707       0.01189536      -1.78238275
H       -0.66409135       0.67374010      -2.43557963
H        0.65740317      -0.63156657      -2.45157240
C       -0.90989263      -0.90692880      -0.91072765
C        0.90977584       0.90977584      -0.90977584
C       -0.00465871       1.77757030       0.00794375
H       -0.66225468       2.44313916      -0.64384735
H        0.64322798       2.43503045       0.67728295
C       -1.78241447       0.00034974      -0.00472694
H       -2.45427497      -0.65498947       0.64260836
H       -2.43311707       0.67328779      -0.65473579
C       -0.91132561       0.90220522       0.91563759
C       -0.01476271      -0.02253852       1.78660255
H       -0.67934791      -0.69751639       2.42135241
H        0.63392994       0.61504881       2.47327442
C        0.01484550      -1.77751727      -0.01636693
H        0.67870853      -2.42144646      -0.68295456
H       -0.62264859      -2.45592969       0.64226336
C        1.78714474       0.01002794       0.00389507
H        2.44202412       0.67113390       0.66197326
H        2.45385902      -0.65136977      -0.64189061
C        0.91606151      -0.90478549       0.90901405
