190
Properties=species:S:1:pos:R:3 pbc="F F F"
C        1.79113165       1.79113165      -1.79113165
C        2.62180462       1.20870983      -2.74280490
C        3.42677673       2.01845367      -3.55374112
C        3.42158673       3.42129952      -3.42825356
C        2.56271882       3.97676990      -2.45893512
C        1.75579162       3.17328822      -1.64532213
C        4.25721461       4.29145920      -4.28523767
N        3.76042982       5.53006914      -4.52725428
C        4.41242334       6.37147047      -5.34676876
C        3.84575691       7.61442799      -5.59731901
C        4.43678164       8.53712609      -6.46305263
C        5.62032902       8.21240006      -7.10871752
C        6.21406169       6.97538367      -6.86697335
C        5.63290562       6.04665101      -5.96433235
C        6.16951966       4.78284222      -5.63504915
C        5.47261812       3.89419748      -4.81335838
C        7.49277356       4.31998106      -6.11936941
O        7.55364325       3.22592397      -6.66451410
N        8.53770607       5.17488490      -5.82192525
C        9.89835823       5.01327977      -6.15630065
C       10.39046850       3.95577901      -6.92482016
C       11.75687611       3.85985881      -7.21068463
C       12.64322826       4.82205623      -6.73250942
C       12.15515917       5.88151640      -5.97361738
C       10.79232732       5.98359629      -5.68694966
H        2.64709417       0.12965312      -2.87112059
H        4.04369283       1.53002240      -4.30562373
H        2.51594476       5.05824676      -2.33413555
H        1.10520231       3.63974280      -0.91028367
H        2.90622090       7.86870100      -5.11132288
H        3.95929873       9.49762200      -6.64079137
H        6.07530590       8.91280562      -7.80516217
H        7.12568659       6.73310846      -7.41169452
H        5.89759693       2.92098741      -4.58848623
H        8.31208343       5.99427861      -5.26992500
H        9.73566257       3.18515768      -7.32140608
H       12.12492043       3.02838022      -7.80749838
H       13.70317155       4.73632970      -6.95582951
H       10.43621553       6.81949656      -5.09168212
C       13.06482505       6.88102495      -5.47653525
C       13.82667023       7.71811335      -5.06022896
Br      15.05850945       9.07161451      -4.38709690
C       -1.79113165      -1.79113165      -1.79113165
C       -1.81467032      -3.16749295      -1.59115607
C       -2.62683469      -3.97464483      -2.39749199
C       -3.42607834      -3.42589022      -3.41917125
C       -3.38252413      -2.02757999      -3.58831972
C       -2.57308555      -1.21528841      -2.78602801
C       -4.29847164      -4.26352955      -4.27191029
N       -5.41490657      -3.65672195      -4.74612473
C       -6.30387260      -4.35154912      -5.47524084
C       -7.45224198      -3.69970281      -5.90555912
C       -8.44516710      -4.35396940      -6.63782386
C       -8.29968125      -5.69892874      -6.94283661
C       -7.15224508      -6.37333149      -6.53084214
C       -6.12636438      -5.70469026      -5.81283435
C       -4.91962932      -6.29270116      -5.37508055
C       -4.01423256      -5.58071385      -4.58522756
C       -4.52746443      -7.67961950      -5.72504011
O       -4.19878094      -8.42973452      -4.81556588
N       -4.51155610      -7.94035560      -7.08260453
C       -4.19202451      -9.15878953      -7.71712462
C       -3.89976021     -10.34002164      -7.03128581
C       -3.58577533     -11.51005448      -7.73158974
C       -3.56358048     -11.50992742      -9.12428601
C       -3.86248747     -10.33695393      -9.81085155
C       -4.17860976      -9.16687466      -9.11738885
H       -1.21510927      -3.62458489      -0.80817372
H       -2.64065584      -5.04385657      -2.19482655
H       -3.99321266      -1.55684480      -4.35826961
H       -2.56838252      -0.14040540      -2.94644086
H       -7.58413210      -2.64995679      -5.65215589
H       -9.33459251      -3.81248505      -6.95063455
H       -9.07882160      -6.22480902      -7.48964307
H       -7.07835910      -7.43659671      -6.75553375
H       -3.10118288      -6.05986917      -4.24601852
H       -4.71678416      -7.16165559      -7.69784729
H       -3.90879012     -10.38731855      -5.94611766
H       -3.35702917     -12.42088015      -7.18288971
H       -3.31397346     -12.42229067      -9.65906663
H       -4.40726765      -8.26392016      -9.67620639
C       -3.84284832     -10.32884215     -11.25069477
C       -3.82640054     -10.32204853     -12.45656347
Br      -3.79980586     -10.31106383     -14.40635116
C       -1.79113165       1.79113165       1.79113165
C       -2.90132740       1.24508375       2.42690819
C       -3.70675783       2.05356425       3.23864943
C       -3.42310506       3.42011817       3.42791659
C       -2.28681311       3.93727549       2.77433525
C       -1.47779817       3.13484886       1.96175494
C       -4.25725193       4.28503770       4.29162184
N       -3.61244793       5.32016144       4.88514389
C       -4.26740368       6.12380380       5.73945508
C       -3.55668735       7.14619304       6.35462351
C       -4.14879826       8.00610680       7.28205530
C       -5.48392625       7.83958214       7.61793822
C       -6.22147170       6.82726951       7.00767749
C       -5.63178334       5.97034569       6.04175996
C       -6.30008924       4.93543958       5.35188221
C       -5.61004581       4.07700210       4.49312606
C       -7.75840725       4.69606795       5.47764884
O       -8.13252843       3.56276851       5.74878439
N       -8.54198134       5.79901778       5.19351710
C       -9.94925381       5.88359521       5.23508964
C      -10.77951404       4.84026122       5.65129241
C      -12.16987610       4.99777449       5.65976896
C      -12.74241302       6.20106400       5.25431689
C      -11.91779570       7.24544312       4.84705412
C      -10.52958344       7.09476713       4.83852270
H       -3.14692874       0.19293893       2.30800022
H       -4.55119282       1.58636968       3.74177646
H       -2.02095006       4.98638450       2.90099250
H       -0.60871217       3.57054544       1.47597116
H       -2.50329161       7.27027286       6.11268030
H       -3.55813374       8.79028805       7.74929032
H       -5.94811019       8.48669410       8.35846940
H       -7.25887675       6.69804352       7.31356929
H       -6.14226685       3.27751152       3.98729220
H       -8.05752032       6.63390877       4.88485794
H      -10.37677649       3.88623041       5.97921943
H      -12.80293347       4.17461222       5.98325335
H      -13.82330961       6.31211345       5.25990770
H       -9.90751747       7.92451834       4.51535840
C      -12.50185133       8.49302509       4.42750882
C      -12.99099791       9.53787499       4.07613963
Br     -13.78190657      11.22730891       3.50800538
C        1.79113165      -1.79113165       1.79113165
C        1.70739787      -3.17593255       1.68998892
C        2.51947878      -3.98350154       2.49599119
C        3.42559198      -3.42635639       3.41919144
C        3.48865932      -2.02034427       3.48942025
C        2.67992928      -1.20758523       2.68688747
C        4.29890625      -4.26548956       4.26951566
N        5.48501622      -3.71036830       4.62236873
C        6.37551016      -4.41691212       5.33824030
C        7.59326068      -3.82223640       5.64200683
C        8.59016487      -4.49571683       6.35107866
C        8.37683315      -5.80304237       6.76157108
C        7.15981577      -6.41899738       6.47760555
C        6.13211547      -5.72787129       5.78390223
C        4.86004733      -6.25530778       5.47205592
C        3.94997074      -5.53459178       4.69561146
C        4.40166402      -7.58353733       5.94692269
O        3.95835309      -8.36749759       5.11823065
N        4.46635309      -7.75040574       7.31775740
C        4.11215583      -8.89705500       8.05872783
C        3.69220406     -10.09759154       7.48127207
C        3.35153939     -11.19204607       8.28383409
C        3.43008222     -11.09650645       9.67120525
C        3.85614040      -9.90461913      10.24953342
C        4.19942943      -8.80981200       9.45363185
H        1.02341053      -3.64021190       0.98424545
H        2.44656974      -5.06213409       2.37063513
H        4.18369714      -1.54417017       4.18045976
H        2.75924115      -0.12681399       2.76917364
H        7.77690682      -2.80422184       5.30511612
H        9.53431421      -4.00007008       6.56332782
H        9.15624683      -6.34581083       7.29121603
H        7.03090510      -7.45658973       6.78299474
H        2.98460378      -5.96828564       4.45418115
H        4.76747991      -6.94889971       7.85990741
H        3.61960191     -10.21840461       6.40421981
H        3.02291735     -12.11885025       7.81903144
H        3.15887790     -11.95035211      10.28610075
H        4.52816442      -7.89015262       9.92907716
C        3.94117058      -9.79814274      11.68307192
C        4.01238336      -9.70896876      12.88366042
Br       4.12752839      -9.56478198      14.82491048
C       -0.00445707       0.01189536      -1.78238275
H       -0.66409135       0.67374010      -2.43557963
H        0.65740317      -0.63156657      -2.45157240
C       -0.90989263      -0.90692880      -0.91072765
C        0.90977584       0.90977584      -0.90977584
C       -0.00465871       1.77757030       0.00794375
H       -0.66225468       2.44313916      -0.64384735
H        0.64322798       2.43503045       0.67728295
C       -1.78241447       0.00034974      -0.00472694
H       -2.45427497      -0.65498947       0.64260836
H       -2.43311707       0.67328779      -0.65473579
C       -0.91132561       0.90220522       0.91563759
C       -0.01476271      -0.02253852       1.78660255
H       -0.67934791      -0.69751639       2.42135241
H        0.63392994       0.61504881       2.47327442
C        0.01484550      -1.77751727      -0.01636693
H        0.67870853      -2.42144646      -0.68295456
H       -0.62264859      -2.45592969       0.64226336
C        1.78714474       0.01002794       0.00389507
H        2.44202412       0.67113390       0.66197326
H        2.45385902      -0.65136977      -0.64189061
C        0.91606151      -0.90478549       0.90901405
