169
Properties=species:S:1:pos:R:3 pbc="F F F"
C        0.00000000       0.00000000       0.00000000
C        0.88131408       0.88131408      -0.88131408
C        2.16507566       1.22245534      -0.45550370
C        2.97904872       2.03433038      -1.25561399
C        2.50892566       2.51336851      -2.47924965
N        3.24435322       3.35525296      -3.34438443
C        4.54710503       3.78601486      -3.17725764
O        5.30660414       3.47992286      -2.26812639
C        5.04005300       4.70219158      -4.24082487
C        4.89198717       4.30144782      -5.57217759
C        5.37144312       5.12913191      -6.57434210
N        5.96955400       6.30918174      -6.28215953
C        6.13065531       6.68837968      -5.00342323
C        6.77186415       7.89535305      -4.75487702
C        6.97552028       8.37367722      -3.45894235
C        6.52340186       7.63383050      -2.37752764
C        5.87718744       6.41951766      -2.60135241
C        5.67755921       5.92131783      -3.91542942
C        5.26094618       4.81070500      -8.01475448
C        5.17595376       5.84250127      -8.97164312
C        5.06232666       5.57141082     -10.33900450
C        5.03376105       4.25440965     -10.78557625
C        5.12725736       3.21896173      -9.86144464
C        5.24316254       3.48762145      -8.49392883
C        1.21470743       2.15470531      -2.88256927
F        0.74634957       2.60117077      -4.05971702
C        0.39891879       1.34288914      -2.10035622
H        2.54648606       0.86686225       0.49915905
H        3.96943016       2.28181512      -0.88562169
H        2.72941350       3.68203155      -4.15419071
H        4.41917038       3.35500199      -5.81074606
H        7.12931579       8.48207750      -5.59859809
H        7.48742342       9.31953617      -3.30206063
H        6.67579497       7.99222264      -1.36276902
H        5.53678490       5.85574268      -1.73448933
H        5.19883193       6.88305771      -8.64772314
H        4.99929386       6.39144974     -11.05001650
H        4.94600500       4.04766913     -11.84866777
H        5.34097428       2.65160481      -7.80587995
H       -0.59491240       1.08684362      -2.45123746
C        5.10657575       1.85344973     -10.31811656
C        5.08925490       0.70983342     -10.70057928
Br       5.06124855      -1.13929742     -11.31898916
C       -0.88131408      -0.88131408      -0.88131408
C       -0.32479604      -1.54124416      -1.97699450
C       -1.12684574      -2.34838908      -2.79375827
C       -2.48823331      -2.49145786      -2.52185265
N       -3.38218171      -3.26306745      -3.29874144
C       -3.06939448      -4.04908718      -4.39189587
O       -1.95396849      -4.24613677      -4.85454814
C       -4.23532598      -4.71560310      -5.03214038
C       -5.10195259      -5.44830078      -4.21535920
C       -6.17654203      -6.09934447      -4.79903063
N       -6.39652409      -6.03025287      -6.13411832
C       -5.55503353      -5.34303241      -6.92439228
C       -5.80978470      -5.32249108      -8.28981844
C       -4.99494263      -4.62745678      -9.18574044
C       -3.89746026      -3.92679821      -8.71050153
C       -3.62109745      -3.93241545      -7.34454461
C       -4.43802380      -4.64673880      -6.42954386
C       -7.16057669      -6.89399779      -4.03183119
C       -8.49043399      -7.01614394      -4.48352022
C       -9.44421747      -7.75374729      -3.77477722
C       -9.08858180      -8.39328602      -2.59187913
C       -7.77952904      -8.29663968      -2.13149501
C       -6.82358381      -7.56150133      -2.83962768
C       -3.02110797      -1.81681701      -1.41405703
F       -4.32813647      -1.94651046      -1.13259043
C       -2.23359790      -1.01791998      -0.59064627
H        0.73219227      -1.43521749      -2.21116404
H       -0.65672932      -2.84007105      -3.64006659
H       -4.35345988      -3.19602498      -3.01615091
H       -4.92660886      -5.51136412      -3.14694545
H       -6.66967480      -5.86978015      -8.67053643
H       -5.22106925      -4.63917940     -10.24877157
H       -3.25293537      -3.38221059      -9.39564067
H       -2.75016904      -3.37855556      -6.99829230
H       -8.79382401      -6.52672570      -5.40906307
H      -10.46118716      -7.82757221      -4.15200073
H       -9.83211650      -8.96592707      -2.04429833
H       -5.80474597      -7.53226083      -2.46145224
H       -2.68531195      -0.51594880       0.25809206
C       -7.40300123      -8.96325611      -0.91188469
C       -7.08765918      -9.52154738       0.10953895
Br      -6.57777777     -10.42425713       1.76109459
C       -0.88131408       0.88131408       0.88131408
C       -0.51489204       1.12275225       2.20539041
C       -1.31983515       1.92651379       3.02264415
C       -2.49660523       2.48423139       2.52070720
N       -3.38464851       3.28765630       3.27168580
C       -3.22030412       3.71374702       4.57632639
O       -2.25493979       3.50206097       5.29765264
C       -4.34926114       4.52014522       5.11366309
C       -4.79092374       5.61304239       4.36164644
C       -5.82202213       6.39215135       4.86074365
N       -6.40254046       6.10708230       6.05127252
C       -5.96786189       5.06924843       6.78534790
C       -6.57907400       4.83283135       8.01018887
C       -6.19951140       3.77272004       8.83590842
C       -5.18644842       2.91812218       8.43018940
C       -4.55789818       3.13480447       7.20535486
C       -4.93025103       4.21760204       6.36645339
C       -6.37444262       7.56451435       4.14744869
C       -7.72065739       7.94269713       4.32674363
C       -8.27230323       9.04105668       3.65938207
C       -7.48586526       9.79407266       2.79380903
C       -6.15153479       9.44728005       2.60884890
C       -5.59717672       8.35078388       3.27675222
C       -2.84061722       2.22513579       1.18622900
F       -3.96650874       2.75765189       0.68307673
C       -2.04582897       1.43443127       0.36190391
H        0.39361005       0.68966312       2.61813618
H       -1.00273682       2.08519840       4.04893175
H       -4.23575054       3.54510625       2.78477899
H       -4.32539037       5.84866583       3.41086223
H       -7.37542336       5.49908497       8.33548305
H       -6.69569266       3.62219543       9.79113213
H       -4.87881104       2.08937599       9.06259959
H       -3.76182040       2.45219279       6.91300371
H       -8.35732112       7.37059415       5.00169752
H       -9.31443763       9.30519646       3.82112601
H       -7.91772988      10.64705657       2.27755546
H       -4.54370253       8.12825524       3.12650127
H       -2.34712555       1.26163011      -0.66558698
C       -5.32991210      10.22781093       1.72041900
C       -4.64180310      10.88150555       0.97635895
Br      -3.52918905      11.93847446      -0.22672321
C        0.88131408      -0.88131408       0.88131408
C        2.18774694      -1.16911704       0.48617072
C        3.00207985      -1.98055414       1.28635909
C        2.50997955      -2.51242229       2.47914198
N        3.24479593      -3.35831943       3.34087524
C        4.56508744      -3.74328155       3.20200854
O        5.34209548      -3.38527087       2.32728705
C        5.05391508      -4.67715535       4.25199902
C        4.85232066      -4.32361327       5.58967865
C        5.32674967      -5.16754710       6.58062036
N        5.97071715      -6.31877151       6.27140662
C        6.18303193      -6.65205781       4.98736848
C        6.86956745      -7.83023864       4.72228813
C        7.12807064      -8.26069941       3.41936981
C        6.68617813      -7.50116086       2.34742101
C        5.99516943      -6.31501708       2.58787100
C        5.73950130      -5.86515199       3.90965317
C        5.16194522      -4.89854716       8.02591328
C        5.08034848      -5.96231991       8.94742976
C        4.91616648      -5.73838792      10.31818758
C        4.83209179      -4.43772613      10.80392903
C        4.92106056      -3.37108337       9.91551980
C        5.08744602      -3.59251203       8.54475477
C        1.19323598      -2.20672235       2.85202368
F        0.70329537      -2.70451989       3.99942210
C        0.37654059      -1.39596794       2.06965562
H        2.58686528      -0.77183905      -0.44451508
H        4.01072971      -2.18558848       0.94054877
H        2.71582022      -3.72632108       4.12349447
H        4.34258835      -3.40020871       5.84212138
H        7.21933759      -8.43217256       5.55848123
H        7.67431969      -9.18490793       3.24979260
H        6.88101255      -7.82230786       1.32746621
H        5.66387200      -5.73475125       1.72839365
H        5.14619437      -6.99087489       8.59254352
H        4.85735049      -6.58213097      11.00127863
H        4.70515768      -4.26762824      11.86955598
H        5.17979346      -2.73246585       7.88619974
H       -0.63523947      -1.18188075       2.39652741
C        4.84301181      -2.02203620      10.41309403
C        4.77764597      -0.89220919      10.82981245
Br       4.67195495       0.93462553      11.50361088
