154
Properties=species:S:1:pos:R:3 pbc="F F F"
C        1.77711415       1.77711415      -1.77711415
C        1.55882524       2.04152690      -3.10953243
C        2.60082866       2.91110869      -3.51344768
C        3.40123101       3.11242720      -2.40555296
O        2.89900198       2.41227831      -1.34401964
C        4.61435905       3.88112094      -2.17449539
N        4.84079923       4.85714383      -3.07803993
C        5.96226859       5.57792512      -2.97277226
C        6.14925896       6.59639866      -3.89723858
C        7.29632648       7.39053476      -3.90377206
C        8.29238056       7.14222063      -2.97400780
Br       9.86729853       8.18561220      -2.98153484
C        8.13303898       6.12710441      -2.03194839
C        6.95057457       5.34259906      -1.98530070
C        6.68724885       4.32145626      -1.02507699
C        5.48639051       3.60227386      -1.13687931
C        7.60795466       3.96944967       0.08247582
C        8.07125756       4.93175871       0.99571066
C        8.93230855       4.58268376       2.04100026
C        9.32099143       3.25707765       2.21308126
C        8.85536640       2.28127763       1.33752082
C        8.01389421       2.63607511       0.27949676
H        0.74931976       1.66116388      -3.71625336
H        2.76874059       3.33796727      -4.49291196
H        5.37360594       6.77997329      -4.63903979
H        7.39886173       8.18184725      -4.64107097
H        8.94219177       5.94199204      -1.32987029
H        5.24446730       2.81670703      -0.42572373
H        7.76257363       5.97134182       0.90287990
H        9.29254735       5.34685848       2.72518044
H        9.98124644       2.98378614       3.03219598
H        9.14434208       1.24251656       1.47573614
H        7.67102178       1.85307221      -0.39475011
C       -1.77711415      -1.77711415      -1.77711415
C       -3.03864069      -2.21942338      -1.45182050
C       -3.48545967      -2.98134209      -2.55858326
C       -2.46214568      -2.97041282      -3.48665266
O       -1.41369625      -2.23743110      -3.00417259
C       -2.29978820      -3.56670985      -4.80347733
N       -3.45478932      -3.91172495      -5.40946873
C       -3.39573272      -4.51654368      -6.60068956
C       -4.60197276      -4.82793128      -7.21299215
C       -4.66174320      -5.48847400      -8.44041609
C       -3.48200407      -5.86744945      -9.05915548
Br      -3.53831685      -6.78841757     -10.70771116
C       -2.25488851      -5.56765612      -8.46954715
C       -2.17958965      -4.85504831      -7.24383637
C       -0.96772770      -4.46536918      -6.60068522
C       -1.05782078      -3.80066417      -5.36705873
C        0.38325971      -4.72423993      -7.15394830
C        0.74743505      -4.30873328      -8.44600738
C        2.02882026      -4.55211914      -8.95069317
C        2.98229253      -5.18734452      -8.15993583
C        2.65426163      -5.58552088      -6.86786396
C        1.36597494      -5.36249489      -6.37395261
H       -3.57448633      -2.01691556      -0.53533511
H       -4.43113990      -3.49297871      -2.67550120
H       -5.52959097      -4.54521479      -6.71781326
H       -5.62747209      -5.70656191      -8.88774596
H       -1.34732923      -5.89818040      -8.96854447
H       -0.15973057      -3.48419307      -4.84297442
H        0.03179548      -3.78543342      -9.07739761
H        2.28313916      -4.23759544      -9.95976911
H        3.98171851      -5.36652798      -8.54802713
H        3.39916220      -6.06918216      -6.24110253
H        1.13485812      -5.69148720      -5.36221501
C       -1.77711415       1.77711415       1.77711415
C       -1.51498594       2.10842382       3.08647481
C       -2.57617372       2.95043068       3.49878062
C       -3.43030292       3.06943528       2.41947298
O       -2.94284451       2.34520190       1.36725354
C       -4.68448217       3.77581802       2.20967518
N       -4.91533210       4.78006286       3.08058804
C       -6.07065882       5.44795771       2.99434944
C       -6.26311067       6.49714187       3.88264365
C       -7.44251313       7.24207193       3.90604823
C       -8.46482212       6.91186135       3.03192552
Br     -10.08214390       7.88771628       3.06458539
C       -8.30085184       5.86410152       2.12713842
C       -7.08821822       5.12851344       2.06174267
C       -6.82095172       4.07829861       1.13453178
C       -5.58617783       3.41560989       1.22375595
C       -7.77096336       3.63996984       0.08399532
C       -8.31372281       4.54119472      -0.84761191
C       -9.20170979       4.11101190      -1.83872964
C       -9.53894323       2.76403823      -1.93799364
C       -8.99485389       1.84779759      -1.04352828
C       -8.12612666       2.28342918      -0.03908328
H       -0.66493167       1.78917772       3.67262760
H       -2.72141925       3.41228772       4.46591286
H       -5.46584005       6.74528607       4.58149291
H       -7.54857338       8.05986714       4.61333944
H       -9.12983013       5.61475586       1.46946812
H       -5.34014159       2.61052964       0.53622683
H       -8.04715814       5.59585574      -0.81197834
H       -9.62334156       4.82879387      -2.53791003
H      -10.22034354       2.42779475      -2.71530169
H       -9.24368292       0.79279863      -1.12535906
H       -7.72142239       1.54569213       0.65172958
C        1.77711415      -1.77711415       1.77711415
C        3.09996513      -2.07087059       1.53904886
C        3.51876578      -2.89479763       2.61182161
C        2.42052510      -3.06650647       3.43217961
O        1.35248875      -2.38630289       2.91650830
C        2.20051271      -3.80132375       4.66813891
N        3.32503113      -4.09960228       5.35134958
C        3.21946306      -4.82130494       6.47219797
C        4.39090139      -5.08229577       7.16969903
C        4.40534582      -5.85216839       8.33311909
C        3.21798151      -6.39393400       8.79669349
Br       3.21694677      -7.46358522      10.35391359
C        2.02496337      -6.14852801       8.11860039
C        1.98986287      -5.32860652       6.96000494
C        0.80792115      -4.98749039       6.23837056
C        0.94215942      -4.19949515       5.08388911
C       -0.55511910      -5.41908397       6.63096365
C       -1.07229526      -5.16664974       7.91295113
C       -2.36352998      -5.57190793       8.26561411
C       -3.17555148      -6.20904991       7.33148939
C       -2.69590033      -6.44753495       6.04748858
C       -1.39678869      -6.06289780       5.70436346
H        3.69306016      -1.73229924       0.70137759
H        4.49586729      -3.32890302       2.77484950
H        5.32678888      -4.67059247       6.79523767
H        5.34397876      -6.02597350       8.85182769
H        1.11331021      -6.60619895       8.49454495
H        0.06776369      -3.91459879       4.50453558
H       -0.47077507      -4.64604217       8.65576845
H       -2.73662636      -5.38196404       9.26888772
H       -4.18320995      -6.51403697       7.60200958
H       -3.33072802      -6.93192327       5.30992723
H       -1.04503067      -6.26899369       4.69488108
C       -0.00445707       0.01189536      -1.78238275
H       -0.66409135       0.67374010      -2.43557963
H        0.65740317      -0.63156657      -2.45157240
C       -0.90989263      -0.90692880      -0.91072765
C        0.90977584       0.90977584      -0.90977584
C       -0.00465871       1.77757030       0.00794375
H       -0.66225468       2.44313916      -0.64384735
H        0.64322798       2.43503045       0.67728295
C       -1.78241447       0.00034974      -0.00472694
H       -2.45427497      -0.65498947       0.64260836
H       -2.43311707       0.67328779      -0.65473579
C       -0.91132561       0.90220522       0.91563759
C       -0.01476271      -0.02253852       1.78660255
H       -0.67934791      -0.69751639       2.42135241
H        0.63392994       0.61504881       2.47327442
C        0.01484550      -1.77751727      -0.01636693
H        0.67870853      -2.42144646      -0.68295456
H       -0.62264859      -2.45592969       0.64226336
C        1.78714474       0.01002794       0.00389507
H        2.44202412       0.67113390       0.66197326
H        2.45385902      -0.65136977      -0.64189061
C        0.91606151      -0.90478549       0.90901405
