133
Properties=species:S:1:pos:R:3 pbc="F F F"
C        0.00000000       0.00000000       0.00000000
C        0.86721012       0.86721012      -0.86721012
C        0.64892121       1.13162288      -2.19962841
C        1.69092463       2.00120466      -2.60354365
C        2.49132699       2.20252317      -1.49564894
O        1.98909796       1.50237429      -0.43411562
C        3.70445502       2.97121691      -1.26459137
N        3.93089521       3.94723980      -2.16813590
C        5.05236456       4.66802109      -2.06286824
C        5.23935493       5.68649463      -2.98733455
C        6.38642245       6.48063073      -2.99386804
C        7.38247653       6.23231661      -2.06410378
Br       8.95739451       7.27570818      -2.07163082
C        7.22313495       5.21720039      -1.12204436
C        6.04067055       4.43269503      -1.07539667
C        5.77734482       3.41155223      -0.11517297
C        4.57648648       2.69236984      -0.22697528
C        6.69805064       3.05954565       0.99237985
C        7.16135354       4.02185469       1.90561468
C        8.02240453       3.67277974       2.95090428
C        8.41108740       2.34717362       3.12298528
C        7.94546238       1.37137361       2.24742485
C        7.10399019       1.72617109       1.18940078
H       -0.16058427       0.75125985      -2.80634933
H        1.85883657       2.42806324      -3.58300793
H        4.46370192       5.87006927      -3.72913577
H        6.48895771       7.27194323      -3.73116695
H        8.03228775       5.03208802      -0.41996627
H        4.33456327       1.90680300       0.48418029
H        6.85266960       5.06143779       1.81278392
H        8.38264332       4.43695446       3.63508446
H        9.07134242       2.07388211       3.94210000
H        8.23443805       0.33261253       2.38564017
H        6.76111775       0.94316819       0.51515391
C       -0.86721012      -0.86721012      -0.86721012
C       -2.13798999      -1.29001862      -0.55216388
C       -2.58064393      -2.06005137      -1.65497764
C       -1.54601202      -2.07310228      -2.57038480
O       -0.49455011      -1.34707234      -2.08396542
C       -1.37496714      -2.68757801      -3.87771816
N       -2.52665775      -3.02592579      -4.49368738
C       -2.46053793      -3.64610664      -5.67660933
C       -3.66296674      -3.95028411      -6.29993326
C       -3.71590289      -4.62517665      -7.51984168
C       -2.53347030      -5.02615871      -8.11926790
Br      -2.58102546      -5.96668777      -9.75702028
C       -1.31003527      -4.73410944      -7.51823499
C       -1.24090823      -4.00737056      -6.30048347
C       -0.03226695      -3.62460056      -5.64720252
C       -0.12919598      -2.94363890      -4.42299673
C        1.32207354      -3.90677830      -6.18051168
C        1.70711642      -3.51176239      -7.47294757
C        2.99146330      -3.77700655      -7.95873673
C        3.92727557      -4.41400419      -7.14854712
C        3.57858584      -4.79213383      -5.85586315
C        2.28721834      -4.54729540      -5.38068343
H       -2.68244608      -1.06966110       0.35508226
H       -3.53108051      -2.56150411      -1.77732313
H       -4.59299753      -3.65015449      -5.81975493
H       -4.67871836      -4.83696639      -7.97638313
H       -0.40060498      -5.08184182      -8.00189523
H        0.76627012      -2.63170532      -3.89175079
H        1.00576986      -2.98760781      -8.11948553
H        3.26196051      -3.47811659      -8.96835724
H        4.92907550      -4.61016927      -7.52203076
H        4.30973574      -5.27707052      -5.21407564
H        2.03970825      -4.86090230      -4.36793797
C       -0.86721012       0.86721012       0.86721012
C       -0.63345670       1.15445834       2.19225746
C       -1.68221108       2.01463809       2.59882377
C       -2.50156901       2.18785642       1.50007367
O       -2.00456530       1.47947645       0.44154612
C       -3.72917485       2.93528221       1.27580624
N       -3.95683325       3.92115982       2.16827785
C       -5.09025774       4.62388043       2.06911572
C       -5.27879782       5.65308410       2.98130220
C       -6.43727033       6.43042443       2.99322647
C       -7.44298971       6.15389010       2.08201711
Br      -9.03289314       7.17420994       2.09763043
C       -7.28239858       5.12737974       1.15260139
C       -6.08926404       4.35959066       1.09990755
C       -5.82488683       3.32830212       0.15088108
C       -4.61201888       2.62843399       0.25537874
C       -6.75633196       2.94656605      -0.93768157
C       -7.24708283       3.88840437      -1.85789366
C       -8.11802174       3.51138997      -2.88513172
C       -8.48951959       2.17785824      -3.03210208
C       -7.99679671       1.22200839      -2.14939396
C       -7.14533140       1.60464706      -1.10921796
H        0.19034523       0.79495296       2.79241718
H       -1.84212338       2.45344610       3.57433827
H       -4.49521427       5.85889951       3.70879318
H       -6.54074151       7.23097841       3.72034797
H       -8.09887288       4.92012621       0.46534294
H       -4.36889369       1.83604307      -0.44775078
H       -6.95249079       4.93363627      -1.78480358
H       -8.49946075       4.26002750      -3.57497493
H       -9.15752987       1.88288380      -3.83728914
H       -8.27235849       0.17721426      -2.26816233
H       -6.78112127       0.83678531      -0.42877456
C        0.86721012      -0.86721012       0.86721012
C        2.20041551      -1.12908377       0.65067322
C        2.61433912      -1.96637957       1.71495425
C        1.50347565      -2.17727500       2.50874845
O        0.43226508      -1.50834392       1.98497886
C        1.27369992      -2.94183365       3.72472973
N        2.39006384      -3.23132303       4.42488405
C        2.27674759      -3.97806823       5.52843807
C        3.43894992      -4.22962976       6.24460444
C        3.44572953      -5.02297188       7.39221981
C        2.26067751      -5.59818992       7.82002950
Br       2.25020339      -6.69965137       9.35487875
C        1.07683345      -5.36304617       7.12250008
C        1.04827243      -4.52019505       5.98029478
C       -0.12559818      -4.18825528       5.24141292
C        0.01568596      -3.37396755       4.10617810
C       -1.48709352      -4.65544123       5.59686873
C       -2.03528048      -4.44014324       6.87273078
C       -3.32473577      -4.87872179       7.19029396
C       -4.10427918      -5.51272715       6.22682778
C       -3.59384942      -5.71480124       4.94845931
C       -2.29628706      -5.29687276       4.64017480
H        2.80324220      -0.76128314      -0.16750043
H        3.59671068      -2.38385960       1.88933747
H        4.37351594      -3.79136488       5.89802613
H        4.37704565      -5.18840474       7.92661749
H        0.16741313      -5.84679856       7.47013034
H       -0.85248979      -3.09493170       3.51474408
H       -1.45985717      -3.92293228       7.63824837
H       -3.72195672      -4.71719547       8.18927458
H       -5.11068715      -5.84362448       6.47018721
H       -4.20342267      -6.19659254       4.18824054
H       -1.91993518      -5.47484856       3.63421865
