162
Properties=species:S:1:pos:R:3 pbc="F F F"
C        1.77711415       1.77711415      -1.77711415
C        1.55882524       2.04152690      -3.10953243
C        2.60082866       2.91110869      -3.51344768
C        3.40123101       3.11242720      -2.40555296
O        2.89900198       2.41227831      -1.34401964
C        4.61435905       3.88112094      -2.17449539
N        4.84079923       4.85714383      -3.07803993
C        5.96226859       5.57792512      -2.97277226
C        6.14925896       6.59639866      -3.89723858
C        7.29632648       7.39053476      -3.90377206
C        8.29238056       7.14222063      -2.97400780
C        8.13303898       6.12710441      -2.03194839
C        6.95057457       5.34259906      -1.98530070
C        6.68724885       4.32145626      -1.02507699
C        5.48639051       3.60227386      -1.13687931
C        7.60795466       3.96944967       0.08247582
C        8.07125756       4.93175871       0.99571066
C        8.93230855       4.58268376       2.04100026
C        9.32099143       3.25707765       2.21308126
C        8.85536640       2.28127763       1.33752082
C        8.01389421       2.63607511       0.27949676
H        0.74931976       1.66116388      -3.71625336
H        2.76874059       3.33796727      -4.49291196
H        5.37360594       6.77997329      -4.63903979
H        7.39886173       8.18184725      -4.64107097
H        8.94219177       5.94199204      -1.32987029
H        5.24446730       2.81670703      -0.42572373
H        7.76257363       5.97134182       0.90287990
H        9.29254735       5.34685848       2.72518044
H        9.98124644       2.98378614       3.03219598
H        9.14434208       1.24251656       1.47573614
H        7.67102178       1.85307221      -0.39475011
C        9.49282407       7.93752087      -2.97974511
C       10.49819550       8.60358482      -2.98455010
Br      12.12379609       9.68055389      -2.99231937
C       -1.77711415      -1.77711415      -1.77711415
C       -3.04105112      -2.21441593      -1.45441752
C       -3.48678669      -2.97841744      -2.56018088
C       -2.46052416      -2.97364601      -3.48504100
O       -1.41128858      -2.24245006      -3.00156130
C       -2.29590397      -3.57461087      -4.79946054
N       -3.45007473      -3.91789873      -5.40800953
C       -3.38917709      -4.52666273      -6.59712615
C       -4.59446008      -4.83618193      -7.21225419
C       -4.65245035      -5.50040937      -8.43777357
C       -3.47197129      -5.88505391      -9.05158379
C       -2.24577813      -5.58726638      -8.45904727
C       -2.17208962      -4.87102870      -7.23535601
C       -0.96103451      -4.48313896      -6.58960863
C       -1.05291265      -3.81425746      -5.35837357
C        0.39086445      -4.74801262      -7.13778035
C        0.76042056      -4.33774150      -8.42998467
C        2.04261389      -4.58675757      -8.92984838
C        2.99157731      -5.22248143      -8.13408370
C        2.65822002      -5.61553629      -6.84180694
C        1.36909486      -5.38689219      -6.35267524
H       -3.57913903      -2.00732494      -0.54027302
H       -4.43370630      -3.48743884      -2.67847468
H       -5.52273567      -4.54898032      -6.72090304
H       -5.61744949      -5.71686617      -8.88746429
H       -1.33770034      -5.92222416      -8.95412960
H       -0.15548239      -3.49896272      -4.83245295
H        0.04843157      -3.81418768      -9.06527943
H        2.30110383      -4.27622780      -9.93910143
H        3.99164978      -5.40603881      -8.51844758
H        3.39960960      -6.09955875      -6.21117334
H        1.13375265      -5.71195512      -5.34064162
C       -3.51315352      -6.59086933     -10.30606719
C       -3.54764363      -7.18198975     -11.35669705
Br      -3.60341122      -8.13778147     -13.05547666
C       -1.77711415       1.77711415       1.77711415
C       -1.55474100       2.04748313       3.10766044
C       -2.59852577       2.91461365       3.51224560
C       -3.40393467       3.10860251       2.40667399
O       -2.90308713       2.40630570       1.34590711
C       -4.62088604       3.87174909       2.17734024
N       -4.84761492       4.85036479       3.07800328
C       -5.97224283       5.56643448       2.97428866
C       -6.15960557       6.58773178       3.89555884
C       -7.30968506       7.37748709       3.90346114
C       -8.30833133       7.12178544       2.97849222
C       -8.14869727       6.10367184       2.03972266
C       -6.96341213       5.32352848       1.99153372
C       -6.69984186       4.29971688       1.03422336
C       -5.49580726       3.58557530       1.14416112
C       -7.62342330       3.93992924      -0.06842403
C       -8.09391844       4.89693737      -0.98355020
C       -8.95761868       4.54054930      -2.02417592
C       -9.34185734       3.21281199      -2.18968151
C       -8.86913256       2.24217710      -1.31218645
C       -8.02498405       2.60426159      -0.25877307
H       -0.74146049       1.67255997       3.71271653
H       -2.76432458       3.34458929       4.49070595
H       -5.38182821       6.77712775       4.63366306
H       -7.41243738       8.17123046       4.63811212
H       -8.95981583       5.91276258       1.34147569
H       -5.25359098       2.79821202       0.43509506
H       -7.78888122       5.93804466      -0.89589033
H       -9.32341183       5.30070169      -2.70988813
H      -10.00418957       2.93384522      -3.00519818
H       -9.15463883       1.20179279      -1.44530914
H       -7.67652265       1.82517656       0.41714488
C       -9.51179355       7.91249733       2.98579916
C      -10.51969316       8.57471854       2.99191873
Br     -12.14938158       9.64547422       3.00181354
C        1.77711415      -1.77711415       1.77711415
C        3.09849996      -2.07514431       1.53624031
C        3.51798561      -2.89728099       2.61011841
C        2.42153207      -3.06373676       3.43394235
O        1.35394953      -2.38202065       2.91932976
C        2.20290022      -3.79456770       4.67250746
N        3.32846736      -4.09405851       5.35345712
C        3.22399934      -4.81240316       6.47656347
C        4.39662712      -5.07469608       7.17157299
C        4.41215572      -5.84142287       8.33705470
C        3.22459008      -6.37866349       8.80535543
C        2.03039326      -6.13184311       8.12985542
C        1.99435873      -5.31499802       6.96911757
C        0.81138051      -4.97261757       6.24978403
C        0.94460751      -4.18815133       5.09278484
C       -0.55175319      -5.39939952       6.64728218
C       -1.06472227      -5.14204617       7.92998171
C       -2.35608842      -5.54279885       8.28728163
C       -3.17240513      -6.18026368       7.35712927
C       -2.69692818      -6.42357063       6.07248076
C       -1.39771539      -6.04343435       5.72475360
H        3.69022023      -1.74049024       0.69602652
H        4.49434016      -3.33361534       2.77166432
H        5.33260657      -4.66658409       6.79342836
H        5.35172815      -6.01638138       8.85367043
H        1.11852637      -6.58598475       8.50954298
H        0.06940923      -3.90244419       4.51504464
H       -0.45974806      -4.62106084       8.66972277
H       -2.72591341      -5.34909194       9.29104686
H       -4.18014823      -6.48174763       7.63123720
H       -3.33509624      -6.90823134       5.33798740
H       -1.04928976      -6.25325163       4.71488223
C        3.22482596      -7.19072728       9.99453680
C        3.22502351      -7.87083071      10.99047620
Br       3.22534294      -8.97050043      12.60082598
C       -0.00445707       0.01189536      -1.78238275
H       -0.66409135       0.67374010      -2.43557963
H        0.65740317      -0.63156657      -2.45157240
C       -0.90989263      -0.90692880      -0.91072765
C        0.90977584       0.90977584      -0.90977584
C       -0.00465871       1.77757030       0.00794375
H       -0.66225468       2.44313916      -0.64384735
H        0.64322798       2.43503045       0.67728295
C       -1.78241447       0.00034974      -0.00472694
H       -2.45427497      -0.65498947       0.64260836
H       -2.43311707       0.67328779      -0.65473579
C       -0.91132561       0.90220522       0.91563759
C       -0.01476271      -0.02253852       1.78660255
H       -0.67934791      -0.69751639       2.42135241
H        0.63392994       0.61504881       2.47327442
C        0.01484550      -1.77751727      -0.01636693
H        0.67870853      -2.42144646      -0.68295456
H       -0.62264859      -2.45592969       0.64226336
C        1.78714474       0.01002794       0.00389507
H        2.44202412       0.67113390       0.66197326
H        2.45385902      -0.65136977      -0.64189061
C        0.91606151      -0.90478549       0.90901405
