161
Properties=species:S:1:pos:R:3 pbc="F F F"
C        0.00000000       0.00000000       0.00000000
C        0.88145815       0.88145815      -0.88145815
C        2.14034940       0.43343277      -1.27527898
C        2.95208258       1.24452441      -2.07585428
C        2.50101710       2.49396241      -2.50877170
C        1.23680820       2.93718062      -2.08774934
C        0.42712228       2.13452985      -1.27955732
C        3.30744311       3.41126590      -3.32409008
C        3.95849438       3.19905447      -4.48268689
N        4.51107387       4.25963400      -5.15180666
C        3.91080699       4.67762785      -6.22731654
C        4.51240290       5.86930671      -6.91923699
C        4.67304819       5.82027806      -8.31553259
C        5.22046933       6.90359218      -9.00611146
C        5.64193209       8.03243806      -8.30976917
C        5.50439509       8.08431698      -6.92205455
C        4.93296040       7.01342852      -6.22256504
Cl       4.71460168       7.23193272      -4.52103850
C        2.69715422       4.03964152      -6.84613871
C        1.73352188       4.87452781      -7.43890762
C        0.71065215       4.32629419      -8.20921663
Br      -0.56137482       5.46211661      -9.02309685
C        0.63225571       2.95229665      -8.40804704
C        1.56072016       2.11409963      -7.79040756
C        2.56846274       2.64130083      -6.96915612
N        3.37878095       1.69818932      -6.31868142
H        3.33942376       0.72821090      -6.60644850
C        4.04819347       1.85415822      -5.13217567
O        4.65880240       0.91053625      -4.64119767
H        2.50713194      -0.54062280      -0.95908762
H        3.94439780       0.88679234      -2.33930864
H        0.86985624       3.91776024      -2.38649679
H       -0.54683699       2.49984914      -0.96452592
H        3.29538597       4.43876601      -2.95787840
H        4.38016172       4.93876149      -8.88143922
H        5.32615017       6.86256802     -10.08929822
H        6.07801575       8.87322787      -8.84433079
H        5.83805218       8.97149056      -6.38827627
H        1.79288571       5.95320491      -7.31847524
H       -0.15218094       2.52172700      -9.02289511
H        1.46258261       1.03807845      -7.92685935
C       -0.88145815      -0.88145815      -0.88145815
C       -0.45966479      -1.22565636      -2.16373999
C       -1.27107670      -2.02622218      -2.97516240
C       -2.49374618      -2.50855703      -2.50144801
C       -2.91135900      -2.13719086      -1.21318831
C       -2.10865946      -1.32920512      -0.40334487
C       -3.41070105      -3.32713880      -3.30495924
C       -3.18467664      -4.45983974      -3.99571937
N       -4.24148702      -5.14384704      -4.53718047
C       -4.61060128      -6.24797814      -3.95717196
C       -5.79919274      -6.95722978      -4.54452409
C       -5.71493485      -8.34629455      -4.74762944
C       -6.79369352      -9.05256129      -5.28391817
C       -7.95397079      -8.37803268      -5.65213585
C       -8.04151235      -6.99696355      -5.47229072
C       -6.97471575      -6.28284837      -4.91138984
Cl      -7.23534940      -4.59546418      -4.63675931
C       -3.91961975      -6.88223231      -2.78108240
C       -4.70838695      -7.52674123      -1.81182913
C       -4.10836961      -8.30953506      -0.82825830
Br      -5.18238484      -9.19268275       0.45122895
C       -2.72752445      -8.46991036      -0.79516460
C       -1.93512450      -7.80146194      -1.72864091
C       -2.51514068      -6.96758177      -2.69619724
N       -1.61537053      -6.26661630      -3.51366487
H       -0.63680594      -6.52665305      -3.51062417
C       -1.82495374      -5.06653398      -4.14303964
O       -0.91421182      -4.53063773      -4.76568678
H        0.49368629      -0.87048773      -2.54879533
H       -0.93537176      -2.25046642      -3.98466060
H       -3.87172346      -2.47512765      -0.82726216
H       -2.45396462      -1.05312532       0.58955186
H       -4.44746971      -2.99189395      -3.25266672
H       -4.80930822      -8.89410987      -4.49694435
H       -6.72478379     -10.13059322      -5.42263941
H       -8.79159640      -8.92444992      -6.07952810
H       -8.95307335      -6.48024803      -5.76449764
H       -5.79135361      -7.43653097      -1.83668127
H       -2.25655998      -9.09401377      -0.04186742
H       -0.85320865      -7.90886744      -1.66544432
C       -0.88145815       0.88145815       0.88145815
C       -2.15064035       1.25401003       0.44441077
C       -2.95539129       2.06901598       1.24805401
C       -2.50836639       2.49358247       2.50180236
C       -1.21958355       2.12334860       2.91880601
C       -0.40851927       1.31800532       2.11468485
C       -3.28361940       3.37332805       3.38585164
C       -4.54934432       3.26154017       3.82935126
N       -5.00798361       4.12481205       4.78971887
C       -5.14948862       3.66725532       5.99900744
C       -5.61291471       4.64474003       7.04329186
C       -6.64023356       4.24982688       7.91879840
C       -7.10159557       5.11826957       8.91030783
C       -6.56671167       6.39846905       9.01895860
C       -5.55987563       6.80738942       8.14350156
C       -5.07211054       5.93497470       7.16186872
Cl      -3.75182816       6.51086307       6.20488166
C       -4.92598973       2.23966421       6.41728051
C       -4.36741895       1.99526691       7.68427144
C       -4.34299064       0.70203425       8.20113808
Br      -3.61467954       0.39218270       9.91697640
C       -4.87464610      -0.35996795       7.47792126
C       -5.39408551      -0.13224966       6.20339151
C       -5.38225484       1.15371506       5.64294980
N       -5.83416122       1.24399261       4.31749787
H       -6.31554437       0.45551288       3.90302591
C       -5.47758901       2.17795402       3.37898433
O       -5.89513330       2.08599487       2.22940816
H       -2.52329269       0.92568719      -0.52338311
H       -3.92704894       2.37516461       0.86828523
H       -0.83339330       2.46185705       3.87886293
H        0.58629813       1.04608274       2.45775347
H       -2.69712841       4.19433494       3.80056704
H       -7.09712586       3.26611859       7.83711799
H       -7.88651041       4.79764071       9.59386529
H       -6.93159003       7.08019515       9.78378923
H       -5.14986876       7.81058823       8.23736203
H       -3.97153244       2.81572904       8.27730437
H       -4.87482626      -1.36673679       7.88435170
H       -5.77274410      -0.98122245       5.63599876
C        0.88145815      -0.88145815       0.88145815
C        0.60258333      -2.24064486       1.00583296
C        1.40486440      -3.04715393       1.82044295
C        2.50394297      -2.50693493       2.49287333
C        2.75982088      -1.13164522       2.37027206
C        1.95477595      -0.32053972       1.56589378
C        3.37151024      -3.28387056       3.38741829
C        4.01902750      -4.44468592       3.17652233
N        4.91382800      -4.89896905       4.10971748
C        6.18095360      -4.80218295       3.83261483
C        7.14316491      -5.26771930       4.89006240
C        8.21420599      -6.09249426       4.50215859
C        9.13920156      -6.54604263       5.44492879
C        8.98855998      -6.20885120       6.78672815
C        7.91888649      -5.40630540       7.18557473
C        6.99994931      -4.92496809       6.24403656
Cl       5.77878201      -3.85297630       6.83581459
C        6.74807803      -4.30308375       2.53177267
C        7.93304185      -3.54702499       2.56689046
C        8.60968441      -3.25042844       1.38605012
Br      10.21599435      -2.25737047       1.45047382
C        8.12907724      -3.70175533       0.16176683
C        6.93285508      -4.41793378       0.11443849
C        6.20887724      -4.68380726       1.28623520
N        4.97082245      -5.31924297       1.10558628
H        4.74741253      -5.72255313       0.20411751
C        3.87047663      -5.24374125       1.92030948
O        2.82373013      -5.79320394       1.59360225
H       -0.24141145      -2.68454513       0.48246309
H        1.14433865      -4.09710628       1.92905385
H        3.59274626      -0.67714374       2.90422327
H        2.17113804       0.74174164       1.48814167
H        3.57427636      -2.78279893       4.33495509
H        8.33892412      -6.39624058       3.46519773
H        9.97439307      -7.17126330       5.13236004
H        9.70189496      -6.56936231       7.52431714
H        7.81080348      -5.14983902       8.23717652
H        8.34022962      -3.20823861       3.51609761
H        8.66281473      -3.48909109      -0.75946465
H        6.55190364      -4.73192810      -0.85631133
