169
Properties=species:S:1:pos:R:3 pbc="F F F"
C        0.00000000       0.00000000       0.00000000
C        0.88145815       0.88145815      -0.88145815
C        2.14034940       0.43343277      -1.27527898
C        2.95208258       1.24452441      -2.07585428
C        2.50101710       2.49396241      -2.50877170
C        1.23680820       2.93718062      -2.08774934
C        0.42712228       2.13452985      -1.27955732
C        3.30744311       3.41126590      -3.32409008
C        3.95849438       3.19905447      -4.48268689
N        4.51107387       4.25963400      -5.15180666
C        3.91080699       4.67762785      -6.22731654
C        4.51240290       5.86930671      -6.91923699
C        4.67304819       5.82027806      -8.31553259
C        5.22046933       6.90359218      -9.00611146
C        5.64193209       8.03243806      -8.30976917
C        5.50439509       8.08431698      -6.92205455
C        4.93296040       7.01342852      -6.22256504
Cl       4.71460168       7.23193272      -4.52103850
C        2.69715422       4.03964152      -6.84613871
C        1.73352188       4.87452781      -7.43890762
C        0.71065215       4.32629419      -8.20921663
C        0.63225571       2.95229665      -8.40804704
C        1.56072016       2.11409963      -7.79040756
C        2.56846274       2.64130083      -6.96915612
N        3.37878095       1.69818932      -6.31868142
H        3.33942376       0.72821090      -6.60644850
C        4.04819347       1.85415822      -5.13217567
O        4.65880240       0.91053625      -4.64119767
H        2.50713194      -0.54062280      -0.95908762
H        3.94439780       0.88679234      -2.33930864
H        0.86985624       3.91776024      -2.38649679
H       -0.54683699       2.49984914      -0.96452592
H        3.29538597       4.43876601      -2.95787840
H        4.38016172       4.93876149      -8.88143922
H        5.32615017       6.86256802     -10.08929822
H        6.07801575       8.87322787      -8.84433079
H        5.83805218       8.97149056      -6.38827627
H        1.79288571       5.95320491      -7.31847524
H       -0.15218094       2.52172700      -9.02289511
H        1.46258261       1.03807845      -7.92685935
C       -0.25872211       5.19187098      -8.82945076
C       -1.07057306       5.91679153      -9.34889684
Br      -2.38326736       7.08892676     -10.18879722
C       -0.88145815      -0.88145815      -0.88145815
C       -0.64887217      -0.94677368      -2.25341529
C       -1.46192532      -1.74763972      -3.06289624
C       -2.49288598      -2.50698078      -2.50388446
C       -2.72444425      -2.41540860      -1.12188531
C       -1.92126514      -1.60864974      -0.31129456
C       -3.40440628      -3.34544670      -3.29294611
C       -3.13709365      -4.30176929      -4.20137282
N       -4.15801830      -5.07404441      -4.69045182
C       -4.24616732      -6.30118133      -4.26840273
C       -5.39960379      -7.11464741      -4.78669540
C       -5.14408622      -8.41928106      -5.24549156
C       -6.18205823      -9.21790621      -5.73020854
C       -7.47790510      -8.71415138      -5.79208284
C       -7.73956942      -7.41436284      -5.35683435
C       -6.71000797      -6.61396863      -4.84497737
Cl      -7.16928281      -5.06169425      -4.23659584
C       -3.26805665      -6.97188282      -3.34299499
C       -3.76398767      -7.88612783      -2.39684180
C       -2.88631441      -8.68841709      -1.67143146
C       -1.51372922      -8.60219597      -1.87667421
C       -1.01148179      -7.66943507      -2.78431049
C       -1.87456587      -6.81632187      -3.48803195
N       -1.25208824      -5.85026675      -4.29329671
H       -0.26090482      -5.92838935      -4.48478899
C       -1.74987205      -4.62595892      -4.65869639
O       -1.05691013      -3.84786294      -5.30576325
H        0.15535280      -0.37266208      -2.70828749
H       -1.28234183      -1.75297754      -4.13517941
H       -3.53793616      -2.97415470      -0.66202241
H       -2.12098782      -1.55212763       0.75557737
H       -4.45363854      -3.21298930      -3.02540254
H       -4.13599191      -8.82765960      -5.23671092
H       -5.97695073     -10.23264029      -6.06842539
H       -8.28612512      -9.33067789      -6.17877140
H       -8.75616362      -7.03100487      -5.41065053
H       -4.83490277      -7.98849466      -2.24116843
H       -0.82671669      -9.23850219      -1.32722228
H        0.06787343      -7.58976878      -2.90562507
C       -3.40577823      -9.63657523      -0.72024616
C       -3.84082918     -10.43065767       0.07637153
Br      -4.54426977     -11.71462182       1.36443496
C       -0.88145815       0.88145815       0.88145815
C       -2.25902930       0.67673241       0.91329943
C       -3.06825319       1.48996301       1.71424508
C       -2.50417872       2.49282649       2.50674601
C       -1.11603415       2.69685749       2.44884652
C       -0.30537070       1.89359548       1.64224326
C       -3.29174408       3.40326613       3.34778888
C       -4.22561937       3.13547692       4.27913946
N       -4.70965631       4.15028205       5.06257617
C       -4.31200328       4.20393547       6.29981263
C       -4.82336150       5.35095795       7.12662716
C       -5.31495117       5.07817880       8.41572888
C       -5.79483294       6.10938363       9.22595640
C       -5.81906152       7.41644001       8.74863779
C       -5.35098422       7.69576224       7.46402016
C       -4.84376209       6.67242506       6.65276681
Cl      -4.19316363       7.15084320       5.12356607
C       -3.42156244       3.19268049       6.96869152
C       -2.48492270       3.64931574       7.91271886
C       -1.79509641       2.73996367       8.71110289
C       -2.02694154       1.37413128       8.59152658
C       -2.92481969       0.91074979       7.62965787
C       -3.59219128       1.80611499       6.78061342
N       -4.38953494       1.22107573       5.78504103
H       -4.60319766       0.23276993       5.83811557
C       -4.71844777       1.75183567       4.56424393
O       -5.36311677       1.08908019       3.75833937
H       -2.71822934      -0.10555453       0.31292195
H       -4.14390835       1.33310322       1.69348721
H       -0.65132696       3.48862066       3.03416565
H        0.76638032       2.07176403       1.61215437
H       -2.99970429       4.44911032       3.24321576
H       -5.33578924       4.06185670       8.80271650
H       -6.15869689       5.89045764      10.22886189
H       -6.20186804       8.21969797       9.37400841
H       -5.37551616       8.72101626       7.10128660
H       -2.30923649       4.71432755       8.04100182
H       -1.50551165       0.66253908       9.22439043
H       -3.06681940      -0.16389929       7.52460031
C       -0.85365744       3.21930982       9.68963236
C       -0.06520230       3.62076223      10.50915079
Br       1.20966297       4.26987681      11.83424279
C        0.88145815      -0.88145815       0.88145815
C        0.52820191      -2.20917624       1.11168300
C        1.33103169      -3.01490918       1.92652041
C        2.50303241      -2.50760426       2.49311455
C        2.83449272      -1.16223030       2.26501514
C        2.02986463      -0.35110834       1.46023647
C        3.37794933      -3.28324669       3.38160307
C        3.93754016      -4.49482542       3.20787017
N        4.86197897      -4.94853164       4.11200392
C        6.11174064      -4.95234268       3.75166806
C        7.11077723      -5.41403063       4.77613875
C        8.10124643      -6.32961941       4.37799300
C        9.05643137      -6.78398572       5.28975589
C        9.01520443      -6.35567389       6.61326100
C        8.02544685      -5.46164020       7.02367957
C        7.07808730      -4.97991935       6.11094731
Cl       5.96669758      -3.79571471       6.70516061
C        6.62193209      -4.57256305       2.38843932
C        7.85093825      -3.89516337       2.30085568
C        8.46561145      -3.71686386       1.06368766
C        7.87883472      -4.21019273      -0.09642806
C        6.64026975      -4.84788681      -0.02292921
C        5.97975119      -4.99303858       1.20612992
N        4.69574574      -5.55577988       1.14412608
H        4.38926137      -5.99829045       0.28653134
C        3.65797106      -5.35822672       2.01832958
O        2.56020660      -5.85688847       1.79344125
H       -0.37403911      -2.62811466       0.67152121
H        1.01405268      -4.03682161       2.11962449
H        3.72705619      -0.73135592       2.71570117
H        2.30564299       0.68788073       1.29977582
H        3.67291486      -2.73918055       4.27993498
H        8.13871676      -6.70415440       3.35749127
H        9.82923579      -7.48071597       4.96806465
H        9.75185131      -6.71612293       7.32760017
H        8.00259425      -5.13438361       8.06084116
H        8.33961537      -3.52603507       3.19891541
H        8.36305037      -4.09012609      -1.06073529
H        6.17783521      -5.19537138      -0.94568617
C        9.73457802      -3.04045460       0.98756699
C       10.79733753      -2.47396186       0.92381593
Br      12.51572977      -1.55799100       0.82073586
