182
Properties=species:S:1:pos:R:3 pbc="F F F"
C        1.79136217       1.79136217      -1.79136217
C        3.05025342       1.34333679      -2.18518300
C        3.86198661       2.15442844      -2.98575831
C        3.41092113       3.40386644      -3.41867573
C        2.14671222       3.84708465      -2.99765336
C        1.33702630       3.04443387      -2.18946135
C        4.21734714       4.32116992      -4.23399410
C        4.86839841       4.10895850      -5.39259092
N        5.42097789       5.16953803      -6.06171068
C        4.82071101       5.58753188      -7.13722056
C        5.42230693       6.77921074      -7.82914102
C        5.58295222       6.73018208      -9.22543661
C        6.13037336       7.81349620      -9.91601549
C        6.55183611       8.94234209      -9.21967320
C        6.41429911       8.99422100      -7.83195857
C        5.84286443       7.92333254      -7.13246907
Cl       5.62450570       8.14183674      -5.43094252
C        3.60705825       4.94954554      -7.75604274
C        2.64342591       5.78443183      -8.34881164
C        1.62055617       5.23619822      -9.11912065
Br       0.34852920       6.37202063      -9.93300087
C        1.54215974       3.86220067      -9.31795106
C        2.47062418       3.02400366      -8.70031158
C        3.47836677       3.55120485      -7.87906014
N        4.28868498       2.60809335      -7.22858545
H        4.24932778       1.63811493      -7.51635253
C        4.95809749       2.76406225      -6.04207969
O        5.56870643       1.82044027      -5.55110170
H        3.41703597       0.36928123      -1.86899165
H        4.85430182       1.79669637      -3.24921267
H        1.77976026       4.82766427      -3.29640081
H        0.36306704       3.40975317      -1.87442994
H        4.20529000       5.34867003      -3.86778242
H        5.29006575       5.84866552      -9.79134324
H        6.23605420       7.77247204     -10.99920224
H        6.98791978       9.78313189      -9.75423482
H        6.74795621       9.88139459      -7.29818030
H        2.70278973       6.86310893      -8.22837926
H        0.75772308       3.43163103      -9.93279913
H        2.37248664       1.94798248      -8.83676338
C       -1.79136217      -1.79136217      -1.79136217
C       -1.22145571      -2.82226402      -2.53505348
C       -2.02761962      -3.62477944      -3.34977429
C       -3.40846870      -3.41953006      -3.40546454
C       -3.96362557      -2.36471239      -2.66311227
C       -3.16054357      -1.55421983      -1.85615812
C       -4.31237261      -4.20089098      -4.25924758
C       -4.46442014      -5.53332102      -4.37220666
N       -5.49776746      -6.03496023      -5.11949892
C       -6.51111279      -6.54835123      -4.48599943
C       -7.65085847      -7.05280152      -5.32699868
C       -8.19161001      -8.31668309      -5.03027782
C       -9.25530843      -8.82741131      -5.77716531
C       -9.76934561      -8.09881974      -6.84568604
C       -9.22807778      -6.85174902      -7.16065188
C       -8.17789065      -6.31903799      -6.40173740
Cl      -7.65940031      -4.72206547      -6.81581919
C       -6.60858054      -6.71043071      -2.99363528
C       -7.86252470      -6.53068339      -2.38346128
C       -8.04789690      -6.88008854      -1.04788959
Br      -9.74574536      -6.65938126      -0.24842409
C       -7.00223635      -7.41587564      -0.30419948
C       -5.74462071      -7.55978027      -0.89053844
C       -5.52300254      -7.16678965      -2.21883957
N       -4.19684170      -7.26058002      -2.66794205
H       -3.52038777      -7.77028649      -2.11312098
C       -3.59702289      -6.51622442      -3.65099212
O       -2.40095976      -6.65461974      -3.88466889
H       -0.15011142      -3.00705936      -2.49813807
H       -1.55336502      -4.39912890      -3.94771693
H       -5.03265810      -2.16321946      -2.70794779
H       -3.61255976      -0.74243479      -1.29225560
H       -5.01706442      -3.58499222      -4.81968581
H       -7.78953141      -8.92062795      -4.21991515
H       -9.67784243      -9.80021892      -5.52966713
H      -10.59097964      -8.49907082      -7.43523603
H       -9.63743126      -6.29160111      -7.99849872
H       -8.70014865      -6.13913587      -2.95499341
H       -7.14671873      -7.70712494       0.73169043
H       -4.92784178      -7.94657839      -0.28281232
C       -1.79136217       1.79136217       1.79136217
C       -2.86626713       1.23304102       2.47946506
C       -3.67963221       2.04206147       3.28047967
C       -3.40838160       3.40553349       3.41954821
C       -2.33169101       3.95493157       2.70482765
C       -1.52308868       3.15234724       1.89548560
C       -4.23418646       4.32113877       4.21718593
C       -4.64378884       4.23022061       5.49593837
N       -5.27325264       5.29722209       6.08175188
C       -4.60063473       5.99831033       6.94651839
C       -5.29861149       7.18900842       7.54303877
C       -5.22593872       7.37786668       8.93476552
C       -5.85129081       8.47174372       9.53685051
C       -6.58082281       9.36968141       8.76334717
C       -6.67508930       9.18156612       7.38382327
C       -6.03017972       8.10183891       6.76664740
Cl      -6.12657473       8.02918504       5.04152520
C       -3.20709575       5.68620874       7.41934204
C       -2.33605517       6.75814649       7.68246771
C       -1.12053969       6.53150023       8.32383512
Br       0.02787183       7.98509907       8.69632347
C       -0.75585319       5.24875945       8.71769883
C       -1.59607802       4.17447373       8.42438767
C       -2.80098387       4.37355602       7.73409187
N       -3.51214551       3.20993912       7.40327914
H       -3.24704954       2.32949216       7.82725354
C       -4.37678422       3.03374266       6.35371256
O       -4.86915534       1.93087567       6.14021738
H       -3.08906161       0.17170129       2.39454594
H       -4.53343934       1.58872680       3.77804471
H       -2.11269385       5.01935552       2.77177597
H       -0.69660117       3.60049250       1.35015648
H       -4.47252402       5.25073728       3.69848115
H       -4.68790590       6.67512370       9.56704491
H       -5.77598795       8.61832708      10.61341345
H       -7.07727282      10.21664307       9.23137060
H       -7.24867056       9.88941227       6.78944827
H       -2.61464149       7.77220592       7.40743052
H        0.18200555       5.06963743       9.23452135
H       -1.27787665       3.17207976       8.70727609
C        1.79136217      -1.79136217       1.79136217
C        1.22608504      -2.84172933       2.51095885
C        2.03206667      -3.64437470       3.32573198
C        3.40868030      -3.41948224       3.40530076
C        3.95883031      -2.34544413       2.68717580
C        3.15569404      -1.53489479       1.88033269
C        4.31147998      -4.20011424       4.26091694
C        4.48192276      -5.53168946       4.35633560
N        5.51149853      -6.02913091       5.11159716
C        6.54178292      -6.51778025       4.48590028
C        7.67638243      -7.01786449       5.33641176
C        8.24049833      -8.26894480       5.02912779
C        9.30056157      -8.77501587       5.78430760
C        9.78760152      -8.05507134       6.87117853
C        9.22295190      -6.82108114       7.19644566
C        8.17624395      -6.29264980       6.42977229
Cl       7.62761246      -4.70999352       6.85967899
C        6.66386242      -6.65585179       2.99293232
C        7.92388414      -6.44829331       2.40449192
C        8.13434435      -6.77470786       1.06682283
Br       9.84036685      -6.51674217       0.29644169
C        7.10806119      -7.31469732       0.29955296
C        5.84418225      -7.48611602       0.86464115
C        5.59693452      -7.11655495       2.19514230
N        4.26580979      -7.23681858       2.62273540
H        3.60544880      -7.74809450       2.05025193
C        3.64027654      -6.51638377       3.60757913
O        2.44309631      -6.67605697       3.82109512
H        0.15831892      -3.04185415       2.45513577
H        1.56071500      -4.43462534       3.90487051
H        5.02391544      -2.12877935       2.75113055
H        3.60374123      -0.70806134       1.33544758
H        4.99838637      -3.58233481       4.84102128
H        7.85967255      -8.86650214       4.20389982
H        9.74136183      -9.73758798       5.52877867
H       10.60632660      -8.45191441       7.46704547
H        9.61130327      -6.26761755       8.04861028
H        8.74691376      -6.05300584       2.99435833
H        7.27230760      -7.58809973      -0.73825409
H        5.04245940      -7.87579902       0.23897407
C       -0.00445707       0.01189536      -1.78238275
H       -0.66409135       0.67374010      -2.43557963
H        0.65740317      -0.63156657      -2.45157240
C       -0.90989263      -0.90692880      -0.91072765
C        0.90977584       0.90977584      -0.90977584
C       -0.00465871       1.77757030       0.00794375
H       -0.66225468       2.44313916      -0.64384735
H        0.64322798       2.43503045       0.67728295
C       -1.78241447       0.00034974      -0.00472694
H       -2.45427497      -0.65498947       0.64260836
H       -2.43311707       0.67328779      -0.65473579
C       -0.91132561       0.90220522       0.91563759
C       -0.01476271      -0.02253852       1.78660255
H       -0.67934791      -0.69751639       2.42135241
H        0.63392994       0.61504881       2.47327442
C        0.01484550      -1.77751727      -0.01636693
H        0.67870853      -2.42144646      -0.68295456
H       -0.62264859      -2.45592969       0.64226336
C        1.78714474       0.01002794       0.00389507
H        2.44202412       0.67113390       0.66197326
H        2.45385902      -0.65136977      -0.64189061
C        0.91606151      -0.90478549       0.90901405
