189
Properties=species:S:1:pos:R:3 pbc="F F F"
C        0.00000000       0.00000000       0.00000000
C       -4.82346608       6.62282711      -9.43026795
O       -4.84989734       5.23435968      -9.12147824
C       -3.63904592       4.59985327      -9.02313279
C       -2.46253352       5.06141381      -9.62052527
C       -1.26697627       4.34563531      -9.48143808
C       -1.22248193       3.15682556      -8.74061222
C        0.07814278       2.39747090      -8.56362009
N        1.15683361       3.21175316      -7.97935648
C        0.84289581       3.69753943      -6.61912492
C        0.86840939       2.61052008      -5.51997090
N        2.18240230       1.94060933      -5.45798236
C        2.51822288       1.39804273      -6.79159792
C        2.42691308       2.45715642      -7.92010298
C        2.22363409       0.86642598      -4.45175161
C        1.94250801       1.30364680      -3.02635565
C        2.50973644       2.46918686      -2.48580757
C        2.24394283       2.84776706      -1.16714732
C        1.42714694       2.05376743      -0.36333032
C        0.88195538       0.88195538      -0.88195538
C        1.13583760       0.50374849      -2.20114518
C       -2.40602128       2.68294390      -8.16007964
C       -3.60146066       3.39656290      -8.30420609
H       -5.83889935       7.00934925      -9.30602229
H       -4.53189548       6.78847469     -10.47113925
H       -4.17109992       7.17080148      -8.74357604
H       -2.44134611       5.97259785     -10.20964087
H       -0.35777266       4.72841530      -9.94216928
H        0.37875592       2.06108379      -9.56559159
H       -0.10027058       1.48615840      -7.97955279
H       -0.12072057       4.21725890      -6.59425707
H        1.58200833       4.46780202      -6.36235199
H        0.64960575       3.11103390      -4.57087854
H        0.06564419       1.88166460      -5.69129518
H        3.54395684       1.00771044      -6.77595172
H        1.85843504       0.55671562      -7.03897378
H        3.24050596       3.18272541      -7.77794450
H        2.63085313       1.97831642      -8.88746905
H        3.22477995       0.41721467      -4.44482600
H        1.51963027       0.07087306      -4.73176343
H        3.15052551       3.09793087      -3.10382401
H        2.67367480       3.76180211      -0.76892709
H        1.22637471       2.35312234       0.66132314
H        0.70519480      -0.41544114      -2.58959691
H       -2.39613329       1.76012267      -7.58526838
C       -4.77891404       2.86048987      -7.67188557
C       -5.76503124       2.41152870      -7.14231714
Br      -7.35949937       1.68559647      -6.28604977
C        4.56734496      -5.61542053     -10.18155342
O        4.52299518      -4.25236850      -9.77656726
C        3.28261561      -3.71420998      -9.55234577
C        2.09981237      -4.21790246     -10.10131548
C        0.87214130      -3.60048940      -9.83174902
C        0.80149121      -2.47008148      -9.00636558
C       -0.53093875      -1.81935975      -8.68893527
N       -1.50818894      -2.74602398      -8.09373032
C       -1.06587794      -3.29787289      -6.79580934
C       -1.08517258      -2.29134816      -5.62237964
N       -2.43316724      -1.72291373      -5.42491302
C       -2.89914324      -1.11790321      -6.69081708
C       -2.81833553      -2.08998281      -7.89585415
C       -2.47390237      -0.72408040      -4.34382890
C       -2.06282290      -1.23430146      -2.97538610
C       -2.51073189      -2.47098066      -2.48301832
C       -2.12647404      -2.91680969      -1.21557347
C       -1.30908462      -2.12183326      -0.41332681
C       -0.88195538      -0.88195538      -0.88195538
C       -1.25437210      -0.43560934      -2.15074983
C        1.98925679      -1.95249733      -8.47376172
C        3.21630534      -2.56743302      -8.74818066
H        5.61261981      -5.93565630     -10.15343570
H        4.21369302      -5.73160900     -11.20980248
H        4.00391228      -6.25336622      -9.49382367
H        2.09741302      -5.08686060     -10.75144504
H       -0.04011407      -4.01576553     -10.25693232
H       -0.92434709      -1.43917442      -9.64190978
H       -0.37243966      -0.93867535      -8.05432561
H       -0.07038902      -3.74773687      -6.87266950
H       -1.73158005      -4.13452590      -6.54605639
H       -0.76600159      -2.83719734      -4.72831925
H       -0.34723708      -1.49705336      -5.79431354
H       -3.94490424      -0.80396028      -6.57875448
H       -2.31645949      -0.21683681      -6.92082814
H       -3.56935519      -2.87983373      -7.75198696
H       -3.12257509      -1.56341766      -8.81064584
H       -3.49975212      -0.34919782      -4.23787068
H       -1.84649437       0.13677942      -4.61255181
H       -3.15069469      -3.10130414      -3.10028155
H       -2.46454615      -3.88383562      -0.85602222
H       -1.01588682      -2.47383095       0.57154386
H       -0.91503829       0.53595893      -2.50027122
H        1.95892810      -1.07322795      -7.83495791
C        4.39756814      -1.99185268      -8.15917687
C        5.38687574      -1.50980414      -7.66588620
Br       6.98650245      -0.73037242      -6.86827691
C        4.03088774       4.21208075      11.04843597
O        3.90514905       2.90143262      10.50965700
C        2.64968689       2.50937841      10.12424862
C        1.46842536       3.07550354      10.61232738
C        0.22293821       2.60768722      10.17534811
C        0.13299864       1.56765851       9.24029598
C       -1.21460848       1.08134297       8.74328232
N       -2.04246572       2.14852069       8.15695683
C       -1.42785851       2.76784017       6.96386149
C       -1.42179536       1.87658148       5.70052354
N       -2.78924149       1.46266691       5.32908559
C       -3.42890745       0.79582149       6.48313459
C       -3.38016028       1.64410214       7.77991007
C       -2.81278316       0.57290458       4.15612393
C       -2.22593874       1.16030085       2.88627087
C       -2.51156041       2.47379891       2.47937155
C       -1.96692237       2.99099806       1.30093678
C       -1.14901853       2.19447564       0.50075053
C       -0.88195538       0.88195538       0.88195538
C       -1.41503458       0.36296464       2.06273205
C        1.31633970       0.98582042       8.76752154
C        2.56051421       1.45080984       9.20901271
H        5.09824632       4.42970164      11.14501687
H        3.59005941       4.27026717      12.04751070
H        3.59654590       4.96082006      10.37900344
H        1.47982140       3.87914248      11.34157153
H       -0.68591565       3.07072110      10.55617517
H       -1.73169146       0.65811761       9.61562222
H       -1.07384124       0.24942068       8.04217869
H       -0.40857554       3.10947071       7.17274914
H       -1.98873574       3.68453499       6.73889162
H       -0.96930608       2.46603150       4.89618061
H       -0.77793067       1.00173454       5.85893877
H       -4.48246766       0.59697243       6.24817891
H       -2.95412394      -0.17483649       6.67483699
H       -4.04013683       2.51332477       7.64771427
H       -3.81816072       1.07045851       8.60801937
H       -3.85263298       0.31115935       3.92302828
H       -2.29387611      -0.36572600       4.39411665
H       -3.15016020       3.10622917       3.09589102
H       -2.18069194       4.01463382       1.00907824
H       -0.73065382       2.60241026      -0.41489016
H       -1.19943738      -0.66440357       2.34431676
H        1.27047652       0.17415522       8.04557906
C        3.73776355       0.81714599       8.67407897
C        4.72370988       0.28645251       8.22607197
Br       6.31790170      -0.57163395       7.50168253
C       -4.97196572      -7.88709320       8.31450151
O       -5.10378922      -6.48309120       8.12663859
C       -3.95506693      -5.73911390       8.19989317
C       -2.79636716      -6.15140141       8.86437132
C       -1.66701978      -5.32427637       8.90284052
C       -1.67185208      -4.07085917       8.27594876
C       -0.43917601      -3.18776011       8.29064967
N        0.75903966      -3.84557163       7.74333196
C        0.61249171      -4.22481755       6.32225091
C        0.62974238      -3.03979725       5.32936074
N        1.87419900      -2.25520329       5.45159170
C        2.03934509      -1.81520803       6.85331042
C        1.95163154      -2.98108460       7.87145634
C        1.90017235      -1.09041034       4.55122898
C        1.78719936      -1.41242321       3.07288789
C        2.50794999      -2.46724314       2.48953774
C        2.39529425      -2.73995708       1.12360588
C        1.57954390      -1.94700500       0.31769581
C        0.88195538      -0.88195538       0.88195538
C        0.98278903      -0.61069901       2.24724323
C       -2.84016326      -3.64857426       7.62859126
C       -3.97003849      -4.47402849       7.59531834
H       -5.93119446      -8.34691236       8.06075429
H       -4.75763580      -8.12529676       9.36005750
H       -4.21299962      -8.30816390       7.64811332
H       -2.73968945      -7.10932425       9.37125782
H       -0.76901123      -5.66867100       9.41315214
H       -0.26039928      -2.92363521       9.34219536
H       -0.65221436      -2.24387771       7.77377727
H       -0.29129455      -4.82169079       6.16039915
H        1.44126585      -4.89978796       6.07110854
H        0.54314848      -3.46459867       4.32377103
H       -0.25076195      -2.40327406       5.48609186
H        3.02060185      -1.33736497       6.96965218
H        1.28326789      -1.06196668       7.10888987
H        2.84002044      -3.61618942       7.74496601
H        2.02396388      -2.58081302       8.89186170
H        2.85066942      -0.55715395       4.67899725
H        1.10177664      -0.38952288       4.83096724
H        3.14957197      -3.09391499       3.10879343
H        2.94331132      -3.57092892       0.69016375
H        1.49821239      -2.16355261      -0.74359109
H        0.43422721       0.22623710       2.67136046
H       -2.86838150      -2.67777165       7.13986761
C       -5.13374123      -3.98460159       6.90260104
C       -6.10834227      -3.57470657       6.32245030
Br      -7.68418972      -2.91194097       5.38439563
