158
Properties=species:S:1:pos:R:3 pbc="F F F"
N        5.16426919       6.10539754      -8.44255184
C        4.32269167       5.71433804      -7.54084204
N        4.67288173       5.34209670      -6.27825042
N        3.67477002       4.77204616      -5.38948786
C        4.24609844       4.18093793      -4.33338977
H        5.31328628       4.13489997      -4.13822941
C        3.39255687       3.38466396      -3.44352753
C        2.13875077       3.83921735      -3.01711297
C        1.33640110       3.04604611      -2.19256608
C        1.79255774       1.79255774      -1.79255774
C        3.04425378       1.32989643      -2.19582267
C        3.84470475       2.13149162      -3.01497426
N        2.98182515       5.62821153      -7.75402105
N        2.26373842       6.12898818      -8.79370466
C        0.98767733       6.01681367      -8.60913718
C        0.00691175       6.53447520      -9.58006363
C       -1.35555534       6.40019867      -9.29534564
C       -2.30305000       6.91427014     -10.18406071
C       -1.88203521       7.55636497     -11.34919214
Br      -3.16648467       8.26365331     -12.54301313
C       -0.52338333       7.68621958     -11.63890755
C        0.42511380       7.17388378     -10.75180288
H        4.53581915       6.29202268      -9.23463401
H        5.65525935       5.23771418      -6.06676364
H        1.79009337       4.81653388      -3.34143792
H        0.36474772       3.41567313      -1.88264726
H        3.40458453       0.35180845      -1.89665269
H        4.81229954       1.76872517      -3.34938620
H        2.57542858       5.31953874      -6.86450419
H        0.57549325       5.53596451      -7.70170658
H       -1.68528942       5.90700136      -8.38458314
H       -3.36071262       6.81396296      -9.95555848
H       -0.19009788       8.18734377     -12.54333050
H        1.48611205       7.28019648     -10.96823124
N       -6.84877858      -8.10241218      -4.76102781
C       -6.42134693      -7.11707718      -4.03944765
N       -5.69600224      -6.07165979      -4.52556682
N       -5.13146743      -5.09534847      -3.60948815
C       -4.20511722      -4.34166478      -4.21364413
H       -3.90932442      -4.42172033      -5.25537091
C       -3.39731689      -3.44256638      -3.38086509
C       -3.96799884      -2.64774737      -2.37933488
C       -3.16903832      -1.82251613      -1.58345883
C       -1.79255774      -1.79255774      -1.79255774
C       -1.20899491      -2.56640198      -2.79457599
C       -2.01503597      -3.38442481      -3.59170985
N       -6.64831222      -7.01367630      -2.70206920
N       -7.51296366      -7.73377011      -1.93969749
C       -7.60695472      -7.27255883      -0.73411464
C       -8.52158220      -7.86076354       0.26089517
C       -8.58703725      -7.28771652       1.53476480
C       -9.47206825      -7.80640418       2.48319157
C      -10.28253587      -8.89289647       2.15191045
Br     -11.48956689      -9.58363251       3.43301764
C      -10.21480972      -9.47062912       0.88369504
C       -9.33162509      -8.95338147      -0.06579390
H       -7.33772718      -8.66886687      -4.05588179
H       -5.35706344      -6.12697598      -5.47569774
H       -5.04286159      -2.68463215      -2.22057143
H       -3.63276010      -1.22276336      -0.80754466
H       -0.13721079      -2.55640764      -2.95942724
H       -1.56451679      -4.00518529      -4.36070883
H       -6.21859628      -6.12886814      -2.41200709
H       -7.01023082      -6.40239089      -0.40054262
H       -7.96192409      -6.43659759       1.79222660
H       -9.52481814      -7.35368513       3.46969445
H      -10.84525621     -10.31504869       0.61972852
H       -9.28104168      -9.39426273      -1.05923537
N       -4.76522931       6.83765558       8.10933368
C       -4.04179290       6.41109685       7.12498201
N       -4.52683185       5.69085325       6.07554375
N       -3.60938461       5.12651463       5.10040479
C       -4.21409915       4.20469204       4.34163495
H       -5.25706383       3.91210866       4.41724317
C       -3.38101609       3.39711174       3.44262053
C       -2.37495205       3.96708960       2.65303943
C       -1.57898841       3.16822663       1.82779824
C       -1.79255774       1.79255774       1.79255774
C       -2.79908269       1.20977044       2.56111975
C       -3.59625659       2.01574201       3.37917203
N       -2.70333066       6.63394562       7.02678144
N       -1.94049515       7.49365438       7.75228173
C       -0.73307619       7.58515829       7.29539371
C        0.26300045       8.49450528       7.88994573
C        1.53898338       8.55761741       7.32135495
C        2.48861089       9.43775444       7.84613730
C        2.15640446      10.24570799       8.93421837
Br       3.43920492      11.44616111       9.63322557
C        0.88605252      10.18029037       9.50750595
C       -0.06463580       9.30199845       8.98416621
H       -4.06035484       7.32236677       8.67975423
H       -5.47826256       5.35490125       6.12657336
H       -2.21274267       5.04128876       2.69403374
H       -0.79954338       3.63134949       1.23217524
H       -2.96745921       0.13858085       2.54700561
H       -4.36881265       1.56572878       3.99586948
H       -2.41175018       6.20620693       6.14151440
H       -0.39858986       6.99021985       6.42435462
H        1.79720254       7.93448041       6.46901720
H        3.47678699       9.48871962       7.39687619
H        0.62136876      10.80880457      10.35314057
H       -1.05970377       9.25326217       9.42157384
N        7.05365929      -7.96460316       4.69395611
C        6.60829768      -6.96266480       4.00690928
N        5.79001986      -5.99565410       4.50755488
N        5.22030145      -4.99852323       3.61747936
C        4.21330592      -4.34168511       4.20543510
H        3.86136819      -4.50551319       5.21953428
C        3.40118481      -3.44134497       3.37821859
C        3.97901529      -2.55159132       2.46447448
C        3.17819640      -1.72665720       1.67015969
C        1.79255774      -1.79255774       1.79255774
C        1.20053020      -2.66221934       2.70722335
C        2.00786796      -3.47962882       3.50367386
N        6.90788760      -6.76086651       2.69530362
N        7.86075452      -7.37785812       1.94781863
C        7.99719190      -6.83597863       0.78045765
C        9.00537120      -7.30377257      -0.18769320
C        9.11034590      -6.64784386      -1.41820078
C       10.08182383      -7.05112694      -2.33766992
C       10.93857005      -8.10603377      -2.02108192
Br      12.26169659      -8.64023053      -3.26174535
C       10.83197003      -8.76640594      -0.79663216
C        9.86235953      -8.36451446       0.12392647
H        7.61904732      -8.45468665       3.98874188
H        5.39900994      -6.13158565       5.42914157
H        5.06161838      -2.51385813       2.37258865
H        3.64839402      -1.05200122       0.96267287
H        0.12234258      -2.72694348       2.80375961
H        1.55257484      -4.17398092       4.20385515
H        6.44081587      -5.88669831       2.43195733
H        7.36728984      -5.98362295       0.46225154
H        8.44881944      -5.82101306      -1.66353743
H       10.16460065      -6.53413398      -3.28992582
H       11.49799308      -9.58665807      -0.54407477
H        9.78057124      -8.87002728       1.08394126
C       -0.00445707       0.01189536      -1.78238275
H       -0.66409135       0.67374010      -2.43557963
H        0.65740317      -0.63156657      -2.45157240
C       -0.90989263      -0.90692880      -0.91072765
C        0.90977584       0.90977584      -0.90977584
C       -0.00465871       1.77757030       0.00794375
H       -0.66225468       2.44313916      -0.64384735
H        0.64322798       2.43503045       0.67728295
C       -1.78241447       0.00034974      -0.00472694
H       -2.45427497      -0.65498947       0.64260836
H       -2.43311707       0.67328779      -0.65473579
C       -0.91132561       0.90220522       0.91563759
C       -0.01476271      -0.02253852       1.78660255
H       -0.67934791      -0.69751639       2.42135241
H        0.63392994       0.61504881       2.47327442
C        0.01484550      -1.77751727      -0.01636693
H        0.67870853      -2.42144646      -0.68295456
H       -0.62264859      -2.45592969       0.64226336
C        1.78714474       0.01002794       0.00389507
H        2.44202412       0.67113390       0.66197326
H        2.45385902      -0.65136977      -0.64189061
C        0.91606151      -0.90478549       0.90901405
