137
Properties=species:S:1:pos:R:3 pbc="F F F"
C        0.00000000       0.00000000       0.00000000
N        4.25436516       5.19549352      -7.53264782
C        3.41278765       4.80443402      -6.63093802
N        3.76297770       4.43219267      -5.36834640
N        2.76486600       3.86214213      -4.47958383
C        3.33619441       3.27103390      -3.42348575
H        4.40338225       3.22499594      -3.22832539
C        2.48265285       2.47475994      -2.53362351
C        1.22884674       2.92931333      -2.10720894
C        0.42649707       2.13614209      -1.28266205
C        0.88265372       0.88265372      -0.88265372
C        2.13434976       0.41999241      -1.28591864
C        2.93480072       1.22158760      -2.10507024
N        2.07192113       4.71830750      -6.84411702
N        1.35383440       5.21908416      -7.88380063
C        0.07777330       5.10690965      -7.69923316
C       -0.90299228       5.62457117      -8.67015960
C       -2.26545936       5.49029465      -8.38544161
C       -3.21295403       6.00436612      -9.27415669
C       -2.79193923       6.64646094     -10.43928811
Br      -4.07638870       7.35374928     -11.63310911
C       -1.43328736       6.77631556     -10.72900352
C       -0.48479023       6.26397976      -9.84189885
H        3.62591512       5.38211866      -8.32472998
H        4.74535532       4.32781015      -5.15685962
H        0.88018934       3.90662986      -2.43153389
H       -0.54515630       2.50576911      -0.97274324
H        2.49468050      -0.55809557      -0.98674867
H        3.90239551       0.85882115      -2.43948217
H        1.66552456       4.40963472      -5.95460016
H       -0.33441078       4.62606048      -6.79180255
H       -2.59519345       4.99709733      -7.47467912
H       -4.27061665       5.90405893      -9.04565446
H       -1.10000191       7.27743975     -11.63342647
H        0.57620803       6.37029246     -10.05832721
N       -7.03290305      -6.17366145      -3.77594200
C       -6.45896090      -5.14105086      -3.24814793
N       -5.26552498      -4.63344864      -3.66454316
N       -4.63026076      -3.56721691      -2.90911429
C       -3.34873093      -3.41735412      -3.26462901
H       -2.83462021      -3.99560887      -4.02647450
C       -2.51051155      -2.51999778      -2.46052696
C       -2.95973834      -1.26062769      -2.04500298
C       -2.14916672      -0.44010216      -1.25603233
C       -0.88265372      -0.88265372      -0.88265372
C       -0.41351331      -2.12758191      -1.29916559
C       -1.22693700      -2.94038853      -2.09413303
N       -6.98597283      -4.44064816      -2.20772466
N       -8.24416438      -4.51373159      -1.69882323
C       -8.47250381      -3.59335992      -0.81805238
C       -9.78486778      -3.44271382      -0.16415689
C       -9.96163619      -2.40515382       0.75651311
C      -11.20686730      -2.22140397       1.36270249
C      -12.26364526      -3.07558283       1.04541826
Br     -13.95166040      -2.81556765       1.85675836
C      -12.08839454      -4.11553193       0.13189474
C      -10.84506166      -4.30045406      -0.47557266
H       -7.88582503      -6.24120270      -3.20573604
H       -4.72928315      -5.16472053      -4.33602140
H       -3.95299498      -0.92862080      -2.33673732
H       -2.52251856       0.52766039      -0.93849787
H        0.56775557      -2.48458999      -1.00649917
H       -0.87558013      -3.91990138      -2.40521733
H       -6.33112524      -3.67264901      -2.02598519
H       -7.69063614      -2.86674202      -0.52607409
H       -9.14171989      -1.73414006       0.99927695
H      -11.34188922      -1.40955823       2.07235071
H      -12.90839313      -4.78190286      -0.12056832
H      -10.70514632      -5.10425077      -1.19543061
N       -4.62304862       4.75093908       7.60851880
C       -3.71394012       4.35874914       6.77547043
N       -3.91645548       4.21035987       5.43670142
N       -2.87911101       3.61760766       4.60987329
C       -3.35773169       3.26098742       3.41199495
H       -4.38049169       3.40103416       3.07517773
C       -2.49131137       2.46829511       2.53142981
C       -1.13948312       2.78145557       2.34443033
C       -0.33261692       1.99098575       1.52169854
C       -0.88265372       0.88265372       0.88265372
C       -2.23000027       0.56423759       1.04602295
C       -3.03310313       1.36338072       1.86497472
N       -2.44280114       4.04583533       7.14570918
N       -1.82961167       4.29407134       8.33303618
C       -0.56581065       4.01700193       8.30110354
C        0.31733419       4.25138195       9.45769073
C        1.67795312       3.95271972       9.33551030
C        2.54033271       4.19924338      10.40665812
C        2.03660181       4.74028355      11.59012808
Br       3.20865701       5.08609228      13.03303442
C        0.67839952       5.03339109      11.71704016
C       -0.18497833       4.78850957      10.64760049
H       -4.10144756       4.73684802       8.49446819
H       -4.86122304       4.28264017       5.08616188
H       -0.71935469       3.64502790       2.85397051
H        0.71418034       2.24802592       1.39951046
H       -2.66543768      -0.30161054       0.55950646
H       -4.07869912       1.10927529       2.01272443
H       -1.95135920       3.79798397       6.28041627
H       -0.08838043       3.60185204       7.39321979
H        2.07346470       3.53824702       8.41180069
H        3.59819130       3.97221975      10.30506830
H        0.28138621       5.45698872      12.63526180
H       -1.24351805       5.02348753      10.73782212
N        7.08827419      -6.09646630       3.79776601
C        6.50231871      -5.06521118       3.28062979
N        5.28774183      -4.59561938       3.68015556
N        4.64499873      -3.52676147       2.93483176
C        3.35232641      -3.41531030       3.26307735
H        2.83454654      -4.02338721       3.99876984
C        2.51190204      -2.51880046       2.46033379
C        2.94052399      -1.23975723       2.08508779
C        2.12921184      -0.41975239       1.29633698
C        0.88265372      -0.88265372       0.88265372
C        0.43376180      -2.14775047       1.25874853
C        1.24760067      -2.96011729       2.05374061
N        7.03656836      -4.32811014       2.26966715
N        8.30765708      -4.35971022       1.78935190
C        8.53443567      -3.41352670       0.93595375
C        9.85770840      -3.21680195       0.31722815
C       10.03107924      -2.15374491      -0.57454725
C       11.28535579      -1.92663619      -1.14642320
C       12.35452672      -2.76329205      -0.82400894
Br      14.05430086      -2.44475441      -1.58858557
C       12.18289615      -3.82853108       0.06060449
C       10.93051499      -4.05679769       0.63377571
H        7.95561434      -6.13050499       3.24664444
H        4.74882758      -5.15509993       4.32609758
H        3.91851561      -0.89175686       2.40808063
H        2.48667291       0.56374119       1.01042432
H       -0.53163078      -2.52043669       0.93452768
H        0.91255280      -3.95468849       2.33345754
H        6.36800247      -3.57145666       2.09030031
H        7.74247489      -2.69856108       0.64241629
H        9.20127072      -1.49641245      -0.82110017
H       11.41747102      -1.09517284      -1.83354711
H       13.01245028      -4.48145269       0.31696134
H       10.79307929      -4.88057395       1.33117447
