145
Properties=species:S:1:pos:R:3 pbc="F F F"
C        0.00000000       0.00000000       0.00000000
N        4.25436516       5.19549352      -7.53264782
C        3.41278765       4.80443402      -6.63093802
N        3.76297770       4.43219267      -5.36834640
N        2.76486600       3.86214213      -4.47958383
C        3.33619441       3.27103390      -3.42348575
H        4.40338225       3.22499594      -3.22832539
C        2.48265285       2.47475994      -2.53362351
C        1.22884674       2.92931333      -2.10720894
C        0.42649707       2.13614209      -1.28266205
C        0.88265372       0.88265372      -0.88265372
C        2.13434976       0.41999241      -1.28591864
C        2.93480072       1.22158760      -2.10507024
N        2.07192113       4.71830750      -6.84411702
N        1.35383440       5.21908416      -7.88380063
C        0.07777330       5.10690965      -7.69923316
C       -0.90299228       5.62457117      -8.67015960
C       -2.26545936       5.49029465      -8.38544161
C       -3.21295403       6.00436612      -9.27415669
C       -2.79193923       6.64646094     -10.43928811
C       -1.43328736       6.77631556     -10.72900352
C       -0.48479023       6.26397976      -9.84189885
H        3.62591512       5.38211866      -8.32472998
H        4.74535532       4.32781015      -5.15685962
H        0.88018934       3.90662986      -2.43153389
H       -0.54515630       2.50576911      -0.97274324
H        2.49468050      -0.55809557      -0.98674867
H        3.90239551       0.85882115      -2.43948217
H        1.66552456       4.40963472      -5.95460016
H       -0.33441078       4.62606048      -6.79180255
H       -2.59519345       4.99709733      -7.47467912
H       -4.27061665       5.90405893      -9.04565446
H       -1.10000191       7.27743975     -11.63342647
H        0.57620803       6.37029246     -10.05832721
C       -3.77013266       7.18510791     -11.34846195
C       -4.58936965       7.63622474     -12.10989504
Br      -5.91400658       8.36564250     -13.34106795
N       -4.41502986      -7.58187849      -4.98559815
C       -4.00692089      -6.81299156      -4.02824724
N       -4.03603128      -5.45201512      -4.07547037
N       -3.41335078      -4.67829170      -3.01494949
C       -3.25630174      -3.39900514      -3.37540719
H       -3.56113620      -2.97024545      -4.32532194
C       -2.46413567      -2.52794950      -2.49895112
C       -2.62309029      -2.53443124      -1.10784748
C       -1.83416086      -1.71399656      -0.29714379
C       -0.88265372      -0.88265372      -0.88265372
C       -0.72059726      -0.85271844      -2.26694511
C       -1.51802363      -1.67094324      -3.07249169
N       -3.49660351      -7.28066635      -2.85707580
N       -3.53101542      -8.55092962      -2.37477416
C       -3.10195834      -8.62590001      -1.15605776
C       -3.09207575      -9.89432316      -0.40533958
C       -2.63961261      -9.88844740       0.91778311
C       -2.65388159     -11.07186484       1.66017765
C       -3.11832376     -12.25030322       1.07481716
C       -3.56447727     -12.26041207      -0.24714238
C       -3.55176177     -11.07877388      -0.99055274
H       -4.23615979      -8.51172036      -4.58488361
H       -4.26576088      -5.00990291      -4.95436130
H       -3.36423553      -3.19269210      -0.66142546
H       -1.96905154      -1.74314354       0.77883904
H        0.02343507      -0.21515096      -2.73161770
H       -1.38301364      -1.66749645      -4.15018875
H       -3.28709552      -6.45147983      -2.29118409
H       -2.73408402      -7.73204674      -0.61732150
H       -2.28451741      -8.96991378       1.37784819
H       -2.30794422     -11.06144854       2.69029602
H       -3.92937031     -13.17452018      -0.70697382
H       -3.90689757     -11.07891278      -2.01901735
C       -3.14226764     -13.46655068       1.84538112
C       -3.16232065     -14.48515792       2.49072844
Br      -3.19474466     -16.13215968       3.53420047
N       -4.55180309       4.82728579       7.60341762
C       -3.65402926       4.43671248       6.75741795
N       -3.88603301       4.24909047       5.42839330
N       -2.85481553       3.66144324       4.59033320
C       -3.35390058       3.26243842       3.41437507
H       -4.38799904       3.36824420       3.10046035
C       -2.48972077       2.46933687       2.53197866
C       -1.15144148       2.81125251       2.30267502
C       -0.34539105       2.02036604       1.47954412
C       -0.88265372       0.88265372       0.88265372
C       -2.21690945       0.53499270       1.08835866
C       -3.01951534       1.33454409       1.90739914
N       -2.36645098       4.16520548       7.10268919
N       -1.73037191       4.45898418       8.26736310
C       -0.46108301       4.21281986       8.21001324
C        0.44436624       4.49870278       9.33740196
C        1.80871127       4.23106573       9.18792244
C        2.69096505       4.52637893      10.23015490
C        2.20324582       5.08479667      11.41225897
C        0.84157619       5.34706403      11.56654389
C       -0.04167461       5.05341072      10.52600305
H       -4.00806085       4.84890372       8.47579919
H       -4.84079659       4.28876859       5.10045991
H       -0.74097076       3.69780368       2.77957865
H        0.69110670       2.30024267       1.32422008
H       -2.64204641      -0.35362554       0.63491273
H       -4.05424968       1.05828470       2.08816445
H       -1.89057659       3.90762773       6.23155512
H        0.00400838       3.78661048       7.30085016
H        2.19152405       3.80308320       8.26502384
H        3.75142332       4.32330469      10.10721538
H        0.45689207       5.78398768      12.48376871
H       -1.10330096       5.26412619      10.63740055
C        3.11595945       5.39839567      12.48100098
C        3.88035712       5.66103483      13.37607242
Br       5.11632349       6.08570013      14.82332723
N        6.90058708      -6.34343952       3.73847989
C        6.35271687      -5.30973809       3.18570473
N        5.21126138      -4.71748981       3.63476558
N        4.59163411      -3.65863689       2.85632096
C        3.34064738      -3.42148459       3.26858209
H        2.83953449      -3.93111631       4.08605279
C        2.50731571      -2.52254005       2.46118053
C        2.99749399      -1.31238143       1.95549359
C        2.18860432      -0.49077361       1.16592328
C        0.88265372      -0.88265372       0.88265372
C        0.37341314      -2.07728101       1.38956666
C        1.18586852      -2.89103784       2.18455221
N        6.85787795      -4.69331496       2.08315274
N        8.08122634      -4.86052044       1.51497241
C        8.30850388      -4.00035476       0.57505747
C        9.58951485      -3.95484210      -0.15261845
C        9.76922593      -2.97707148      -1.13602051
C       10.98757762      -2.89245835      -1.81446718
C       12.01469905      -3.78520632      -1.50609555
C       11.83599142      -4.76580887      -0.52976856
C       10.61954167      -4.85162819       0.14991852
H        7.71676068      -6.48630992       3.12969317
H        4.68559728      -5.18371479       4.36071302
H        4.02084648      -1.02012713       2.17737949
H        2.59344290       0.43773870       0.77765184
H       -0.63932041      -2.39516413       1.16748987
H        0.80201014      -3.83279087       2.56589783
H        6.23447996      -3.90131822       1.89396125
H        7.55034075      -3.24840664       0.28470487
H        8.97292947      -2.27598144      -1.37232791
H       11.12549297      -2.12666511      -2.57306133
H       12.63313408      -5.46177506      -0.28404483
H       10.47771341      -5.60860504       0.91850925
C       13.27334189      -3.68914918      -2.19905388
C       14.32745527      -3.60870133      -2.77940647
Br      16.03186744      -3.47862396      -3.71778753
