49
Properties=species:S:1:pos:R:3 pbc="F F F"
C        0.00000000       0.00000000       0.00000000
O       -0.61489604       2.75287892      -0.63252007
C        0.53110163       2.21184637      -1.15356636
C        0.88536522       0.88536522      -0.88536522
C        2.05522045       0.34331954      -1.42117239
C        2.87710279       1.12913975      -2.22964666
C        2.52912505       2.45358764      -2.50099173
C        1.35773002       2.99447625      -1.96380340
Br       0.93357619       4.79960901      -2.36512841
H       -1.05487588       2.06531032      -0.10119274
H        2.33525662      -0.68747216      -1.21577544
H        3.78927300       0.71067436      -2.64898110
H        3.17680281       3.05723909      -3.13233134
O       -1.67981726       1.02627057      -2.11695626
C       -1.67624525      -0.32577078      -1.89449833
C       -0.88536522      -0.88536522      -0.88536522
C       -0.88880882      -2.26434207      -0.66656148
C       -1.68607351      -3.09061182      -1.45920386
C       -2.47751624      -2.53829844      -2.46788974
C       -2.47280888      -1.15774089      -2.68545991
Br      -3.56741194      -0.46119467      -4.06970700
H       -1.07146131       1.43588304      -1.47604891
H       -0.27576678      -2.70452894       0.11673582
H       -1.69160946      -4.16532941      -1.29198958
H       -3.09516769      -3.19134332      -3.07986223
O       -2.61093137      -0.79394958       0.95352116
C       -2.14095853       0.44168326       1.31387257
C       -0.88536522       0.88536522       0.88536522
C       -0.41549524       2.14626333       1.25795380
C       -1.20280564       2.97002540       2.06305815
C       -2.45668080       2.53302677       2.49399685
C       -2.92538749       1.27058101       2.12004118
Br      -4.63641546       0.72772283       2.73417532
H       -1.93400895      -1.22050026       0.39811849
H        0.55999121       2.49606189       0.92748921
H       -0.84044169       3.95296232       2.35552445
H       -3.06216975       3.18302239       3.12118109
O        1.43298164      -2.31323673      -0.97571542
C        1.55315552      -1.99237768       0.35098117
C        0.88536522      -0.88536522       0.88536522
C        1.01423531      -0.56682397       2.23865309
C        1.81420568      -1.35731483       3.06436869
C        2.48324305      -2.46333585       2.53712551
C        2.35306034      -2.78068239       1.18226695
Br       3.28457202      -4.29461761       0.51912397
H        0.84232988      -1.65825124      -1.38895394
H        0.49715176       0.29277827       2.65918641
H        1.91723315      -1.11257656       4.11911874
H        3.10415945      -3.07271210       3.18950169
