70
Properties=species:S:1:pos:R:3 pbc="F F F"
O        0.29500798       3.66278295      -1.54242409
C        1.44100566       3.12175040      -2.06347038
C        1.79526925       1.79526925      -1.79526925
C        2.96512447       1.25322356      -2.33107641
C        3.78700681       2.03904378      -3.13955068
C        3.43902907       3.36349166      -3.41089575
C        2.26763405       3.90438028      -2.87370743
Br       1.84348021       5.70951303      -3.27503244
H       -0.14497186       2.97521435      -1.01109676
H        3.24516065       0.22243186      -2.12567946
H        4.69917702       1.62057838      -3.55888513
H        4.08670684       3.96714311      -4.04223536
O        0.06919539      -3.21373115      -2.35567926
C       -1.25922302      -2.89765983      -2.46934359
C       -1.79526925      -1.79526925      -1.79526925
C       -3.15026512      -1.48147729      -1.91768204
C       -3.97603401      -2.27211637      -2.71745088
C       -3.44715739      -3.37359539      -3.39266371
C       -2.09058477      -3.68617577      -3.26896122
Br      -1.42528377      -5.19411038      -4.20863153
H        0.48230583      -2.55910179      -1.76454330
H       -3.57208379      -0.62544912      -1.39573907
H       -5.03211149      -2.03106916      -2.81545988
H       -4.09958820      -3.98312355      -4.01337355
O       -3.56086510       0.15672312       1.78262681
C       -3.07084208       1.37193189       2.18345247
C       -1.79526925       1.79526925       1.79526925
C       -1.30505052       3.03544467       2.20892925
C       -2.09193358       3.85876911       3.01489857
C       -3.36569092       3.44201308       3.40571249
C       -3.85475047       2.20029500       2.99067628
Br      -5.59228219       1.68441828       3.55132521
H       -2.88099065      -0.27281709       1.23316570
H       -0.31398103       3.36937700       1.90991394
H       -1.71375283       4.82559861       3.33928909
H       -3.97065737       4.09147508       4.03395287
O        3.37420411      -0.00544550       2.12056542
C        2.97767752      -1.29644169       2.35210722
C        1.79526925      -1.79526925       1.79526925
C        1.39993743      -3.11233843       2.03714858
C        2.18881398      -3.93728752       2.83949977
C        3.36986155      -3.44542067       3.39813427
C        3.76401473      -2.12679005       3.15491697
Br       5.37796151      -1.51079857       3.93926561
H        2.70808977       0.41300696       1.54625644
H        0.48153122      -3.50514316       1.60659759
H        1.88438750      -4.96388536       3.03036768
H        3.97726497      -4.09686320       4.02195715
C       -0.00445707       0.01189536      -1.78238275
H       -0.66409135       0.67374010      -2.43557963
H        0.65740317      -0.63156657      -2.45157240
C       -0.90989263      -0.90692880      -0.91072765
C        0.90977584       0.90977584      -0.90977584
C       -0.00465871       1.77757030       0.00794375
H       -0.66225468       2.44313916      -0.64384735
H        0.64322798       2.43503045       0.67728295
C       -1.78241447       0.00034974      -0.00472694
H       -2.45427497      -0.65498947       0.64260836
H       -2.43311707       0.67328779      -0.65473579
C       -0.91132561       0.90220522       0.91563759
C       -0.01476271      -0.02253852       1.78660255
H       -0.67934791      -0.69751639       2.42135241
H        0.63392994       0.61504881       2.47327442
C        0.01484550      -1.77751727      -0.01636693
H        0.67870853      -2.42144646      -0.68295456
H       -0.62264859      -2.45592969       0.64226336
C        1.78714474       0.01002794       0.00389507
H        2.44202412       0.67113390       0.66197326
H        2.45385902      -0.65136977      -0.64189061
C        0.91606151      -0.90478549       0.90901405
