145
Properties=species:S:1:pos:R:3 pbc="F F F"
C        0.00000000       0.00000000       0.00000000
C        0.88156139       0.88156139      -0.88156139
C        2.11382331       0.40313811      -1.32335059
C        2.90640870       1.20025870      -2.14972480
C        2.45907838       2.46894960      -2.54651045
C        1.23764143       2.95614991      -2.07063528
C        0.44637143       2.15681641      -1.24034806
C        3.29465641       3.22347050      -3.52062268
O        4.51697371       3.07383451      -3.48882835
C        2.61581812       4.04954058      -4.59873652
S        2.63477169       3.12927292      -6.17090232
C        1.59069393       1.81509010      -5.75192873
N        0.46412547       1.92153431      -5.09388697
N        0.01256287       0.64960545      -4.84466976
C        0.86592445      -0.21735672      -5.36533322
C        0.75274635      -1.67862651      -5.29064363
C        1.84753623      -2.43457665      -4.82915436
C        1.78881007      -3.82944415      -4.76212211
C        0.62374644      -4.49437461      -5.12821387
C       -0.48307711      -3.76507197      -5.55790385
C       -0.42310782      -2.36663125      -5.64192208
Br      -1.98291842      -1.49110775      -6.29162139
N        1.88162523       0.49822677      -5.97240454
C        3.02580558      -0.03081014      -6.66933217
H        2.45547300      -0.58948250      -1.04281960
H        3.86112078       0.81973022      -2.50646428
H        0.86774096       3.93938685      -2.34362520
H       -0.51612533       2.52929121      -0.89845165
H        3.18468931       4.97733878      -4.71991421
H        1.59493809       4.33700476      -4.34373122
H        2.76126245      -1.94241126      -4.50360395
H        2.65063000      -4.39558656      -4.41559382
H        0.57192348      -5.57913862      -5.07253878
H       -1.39300038      -4.29538449      -5.83040164
H        3.32506349       0.65092453      -7.46871591
H        2.77350208      -0.99194285      -7.12115089
H        3.84115313      -0.14780299      -5.94960517
C       -0.88156139      -0.88156139      -0.88156139
C       -0.84871250      -2.26615013      -0.72544939
C       -1.67380580      -3.06829844      -1.51428797
C       -2.54260975      -2.48426029      -2.44766837
C       -2.54432686      -1.09685305      -2.62324670
C       -1.71462988      -0.29520281      -1.83370321
C       -3.48013224      -3.38240038      -3.17621697
O       -3.11736918      -4.53185674      -3.43041064
C       -4.89073901      -2.90339541      -3.46996079
S       -6.04310045      -3.63091078      -2.26093572
C       -5.48910259      -2.84671455      -0.82189562
N       -5.18127620      -1.57852099      -0.71974956
N       -4.65786161      -1.38285009       0.53387362
C       -4.66417950      -2.53475659       1.18503514
C       -4.16246343      -2.74961746       2.54731742
C       -3.24364770      -3.78872910       2.79026286
C       -2.75709620      -4.04052547       4.07613364
C       -3.15779353      -3.23976394       5.13997177
C       -4.04179788      -2.18582767       4.91787078
C       -4.54480680      -1.93967912       3.63230291
Br      -5.78333743      -0.50396837       3.46971058
N       -5.20960999      -3.49228782       0.34964126
C       -5.41618390      -4.88794863       0.63980493
H       -0.19843360      -2.72483487       0.01445836
H       -1.65855272      -4.14788582      -1.38087674
H       -3.19133871      -0.61200860      -3.34740570
H       -1.74282853       0.78499033      -1.95377933
H       -5.16065942      -3.24736044      -4.47392244
H       -4.98581588      -1.81674467      -3.47311352
H       -2.88481585      -4.41152815       1.97388886
H       -2.05831916      -4.85700210       4.24468400
H       -2.77759164      -3.42880694       6.14107494
H       -4.33894000      -1.55878315       5.75570638
H       -6.29577800      -5.25484798       0.10592204
H       -5.58867920      -5.02319421       1.70916329
H       -4.52624643      -5.43905255       0.32234367
C       -0.88156139       0.88156139       0.88156139
C       -0.29658453       1.68508384       1.85864364
C       -1.10149295       2.50900508       2.64589419
C       -2.48918926       2.54051668       2.44483248
C       -3.07240423       1.70541375       1.48660863
C       -2.26421108       0.87849520       0.70082962
C       -3.28033771       3.52347291       3.23493897
O       -2.89838529       3.81101895       4.37023233
C       -4.45153562       4.23332496       2.57923463
S       -3.94336158       5.91041896       2.08116640
C       -2.78994356       5.51321026       0.85455895
N       -2.94921760       4.59921315      -0.06888400
N       -1.76387787       4.49605907      -0.75309886
C       -0.89922310       5.35870491      -0.24402705
C        0.48938442       5.53789787      -0.68374998
C        1.52663842       5.50080587       0.26794648
C        2.86048851       5.68759537      -0.10561883
C        3.18639844       5.88664810      -1.44266396
C        2.17978380       5.89564441      -2.40610583
C        0.83874224       5.72465682      -2.03373158
Br      -0.44522096       5.80828438      -3.43591012
N       -1.53218537       6.04196283       0.77810834
C       -0.97610737       7.07733799       1.61088225
H        0.78047987       1.68695716       2.00233281
H       -0.64229917       3.14719175       3.39782435
H       -4.14409990       1.69144454       1.31520856
H       -2.72072238       0.25413597      -0.06324081
H       -5.25639506       4.30752764       3.31801959
H       -4.85869423       3.69405923       1.72292060
H        1.30807692       5.31363254       1.31689952
H        3.64546980       5.66887363       0.64723344
H        4.22338285       6.02707584      -1.73836934
H        2.44797904       6.04040203      -3.45040623
H       -1.75824838       7.78060070       1.90585486
H       -0.21513292       7.63041098       1.05716621
H       -0.53953971       6.60681290       2.49660270
C        0.88156139      -0.88156139       0.88156139
C        1.50272300      -2.00296731       0.33462171
C        2.32826744      -2.79268711       1.13543766
C        2.54454915      -2.45145671       2.47853256
C        1.89000771      -1.34512587       3.02929304
C        1.06096043      -0.55685151       2.22572396
C        3.52519350      -3.26423783       3.24931826
O        3.64418576      -4.45947304       2.97597776
C        4.43364622      -2.57709403       4.25335496
S        6.08208194      -2.33708060       3.51578440
C        5.68304807      -1.20074097       2.27392372
N        4.89685124      -0.16416522       2.41853030
N        4.72715420       0.39852025       1.17820413
C        5.42303431      -0.29728146       0.29358519
C        5.48230498      -0.03080819      -1.14834970
C        5.22270963      -1.07555745      -2.05615314
C        5.28896934      -0.86952594      -3.43700725
C        5.58808917       0.39272960      -3.93777387
C        5.81756301       1.44916230      -3.05864593
C        5.76788102       1.24319873      -1.67249929
Br       6.15010732       2.75327696      -0.57923514
N        6.06459146      -1.32044530       0.96721979
C        6.93332012      -2.32370818       0.40729931
H        1.36215882      -2.25871587      -0.71206458
H        2.82479987      -3.65897720       0.70353820
H        2.02091849      -1.06115372       4.06868080
H        0.57904498       0.31950885       2.65208141
H        4.52404663      -3.23038852       5.12750715
H        4.03965257      -1.62491602       4.61110547
H        4.95303594      -2.06608942      -1.69667022
H        5.09829965      -1.69349213      -4.12115451
H        5.63543041       0.55868715      -5.01141962
H        6.03900153       2.43487428      -3.46211048
H        7.68898500      -2.61551272       1.14020621
H        7.44793151      -1.92262571      -0.46784711
H        6.32369533      -3.18872103       0.13053895
