169
Properties=species:S:1:pos:R:3 pbc="F F F"
C        0.00000000       0.00000000       0.00000000
C        2.17528025       4.71650972       0.29199063
O        2.14368489       4.35130656      -1.08302871
C        1.89229925       3.02690275      -1.33769719
C        1.08132555       2.22036751      -0.53814101
C        0.88263497       0.88263497      -0.88263497
C        1.47768230       0.33780126      -2.02051696
C        2.27305790       1.14485045      -2.84298949
C        2.96402714       0.58600024      -4.05690071
H        2.34475709      -0.18328924      -4.53163867
N        4.21393287      -0.01760366      -3.68994401
C        5.31933067       0.70476113      -3.33681139
O        6.23563596       0.08472850      -2.80007678
N        5.28127294       2.07736509      -3.59725351
C        6.32401287       2.91204555      -3.05308150
C        7.66571506       2.50360392      -3.11172847
C        8.69140085       3.29501225      -2.58276678
C        8.38504382       4.50798209      -1.97692542
C        7.06510296       4.93598040      -1.90097388
C        6.04437031       4.14387590      -2.43971660
C        4.09173995       2.69917727      -4.24515891
C        4.49142736       3.79746149      -5.25505681
C        3.26739444       1.68301391      -5.04339153
O        3.24737493       3.32377582      -3.25989869
C        2.47642136       2.48681303      -2.49322616
H        2.66503152       5.69242731       0.36616221
H        2.75806871       4.00532517       0.88795511
H        1.16028996       4.82106229       0.68716921
H        0.59049016       2.62121145       0.34263639
H        1.32542049      -0.71014199      -2.26716851
H        4.23936953      -0.97331961      -3.35801907
H        7.93965635       1.56610105      -3.59088892
H        9.71899640       2.94882038      -2.64845164
H        6.81058598       5.87444043      -1.41638844
H        5.02605115       4.50128008      -2.31991375
H        4.93694637       4.67297307      -4.77521133
H        3.60785934       4.17727032      -5.78240292
H        5.20018851       3.41676483      -5.99878249
H        2.33769671       2.13000666      -5.41926744
H        3.83122245       1.29156620      -5.90020359
C        9.43542927       5.32131579      -1.42124683
C       10.31512708       6.00248276      -0.95586600
Br      11.73752405       7.10387214      -0.20338457
C       -1.27665506      -0.28830583      -5.03483845
O       -2.26958198      -1.00172937      -4.30670881
C       -1.94906666      -1.30103905      -3.00679348
C       -1.14969141      -0.49399305      -2.19614961
C       -0.88263497      -0.88263497      -0.88263497
C       -1.40863810      -2.06510297      -0.36225946
C       -2.23206359      -2.86946199      -1.15937226
C       -2.78683696      -4.17132309      -0.64876804
H       -3.01466891      -4.09903621       0.42059861
N       -1.83161990      -5.22834712      -0.82630621
C       -1.53986758      -5.77743854      -2.04359706
O       -0.53389742      -6.48203307      -2.10451074
N       -2.39967083      -5.45807770      -3.09814300
C       -2.01813428      -5.83364688      -4.43735876
C       -1.48168547      -7.10512917      -4.69423281
C       -1.09806749      -7.48623989      -5.98487250
C       -1.23879325      -6.59169022      -7.03946787
C       -1.76328108      -5.32467988      -6.81409627
C       -2.15329980      -4.95241540      -5.52224761
C       -3.58058125      -4.57524491      -2.88024999
C       -4.81206601      -5.04800110      -3.68387855
C       -4.02670837      -4.55305675      -1.41403476
O       -3.29295257      -3.23046646      -3.30763041
C       -2.49526491      -2.48105775      -2.48013790
H       -1.51753691      -0.37484424      -6.09891547
H       -0.27814732      -0.71347963      -4.88381181
H       -1.29484519       0.77405963      -4.77339749
H       -0.74191533       0.44042075      -2.56757063
H       -1.17899043      -2.36172723       0.65827064
H       -1.10718803      -5.38065748      -0.13622348
H       -1.37102933      -7.83264737      -3.89296962
H       -0.68926831      -8.47949142      -6.14750870
H       -1.86407323      -4.61064992      -7.62669170
H       -2.51918478      -3.93874849      -5.38931171
H       -4.68028134      -4.94095541      -4.76389401
H       -5.69012847      -4.43775621      -3.43964789
H       -5.04970577      -6.09595827      -3.47007179
H       -4.82248597      -3.81468923      -1.24979562
H       -4.39708432      -5.53479247      -1.09111545
C       -0.83554985      -6.97470740      -8.36773463
C       -0.49783351      -7.29548429      -9.48015805
Br       0.04822526      -7.81415339     -11.27885263
C       -3.12253073       4.11209907      -0.63483046
O       -2.78195768       4.05057604       0.74548643
C       -2.22195494       2.87037867       1.16456557
C       -1.40995396       2.06604631       0.36383379
C       -0.88263497       0.88263497       0.88263497
C       -1.14893970       0.49208074       2.19498009
C       -1.94211345       1.30431616       3.01446824
C       -2.28495340       0.89965587       4.42231883
H       -1.44805001       0.36254241       4.88251410
N       -3.42652659       0.02902434       4.43072230
C       -4.70126974       0.46323587       4.19639758
O       -5.54702417      -0.40151366       3.97493073
N       -4.90459512       1.84595017       4.20534625
C       -6.17482576       2.35945991       3.75485425
C       -7.37269167       1.74936306       4.15899272
C       -8.61493420       2.22724730       3.72699838
C       -8.67444334       3.32244224       2.87306575
C       -7.50454348       3.94408233       2.45343143
C       -6.26526032       3.46670943       2.89599305
C       -3.77704582       2.78203882       4.47699150
C       -4.21742665       3.98113430       5.34538471
C       -2.63627488       2.10910201       5.24842298
O       -3.26106933       3.32356860       3.24641151
C       -2.47570892       2.48991378       2.49083784
H       -3.80917360       4.95334351      -0.77122048
H       -3.63821399       3.20413973      -0.96691495
H       -2.23381494       4.30401357      -1.24364545
H       -1.17036361       2.35339256      -0.65469095
H       -0.74307383      -0.44035921       2.57973239
H       -3.30960972      -0.96475058       4.27920985
H       -7.36063287       0.89881180       4.83720164
H       -9.52191146       1.73213673       4.06222023
H       -7.53643757       4.79111938       1.77385791
H       -5.37877056       3.95982626       2.50864816
H       -4.90983121       4.64914375       4.82615579
H       -3.35503636       4.60694289       5.60555332
H       -4.69449454       3.64763922       6.27360207
H       -1.76919563       2.77611252       5.34166266
H       -2.95221419       1.81339518       6.25738288
C       -9.94957824       3.81170030       2.41671334
C      -11.01750372       4.22145393       2.03451819
Br     -12.74424890       4.88399089       1.41654096
C        1.34457230      -0.23533570       5.01989134
O        2.31675459      -0.97316554       4.28810003
C        1.97341451      -1.28620591       2.99727876
C        1.17398607      -0.47932090       2.18652710
C        0.88263497      -0.88263497       0.88263497
C        1.38433373      -2.07977384       0.37189296
C        2.20765137      -2.88450900       1.16873747
C        2.73656559      -4.20129137       0.66907114
H        2.95002740      -4.14741823      -0.40433911
N        1.76913558      -5.24188050       0.87525714
C        1.48714342      -5.76945120       2.10430857
O        0.47228312      -6.45860405       2.18955407
N        2.36642428      -5.44757460       3.14189266
C        1.99887086      -5.79864479       4.49162426
C        1.44822847      -7.05853598       4.77428300
C        1.07781853      -7.41580397       6.07555738
C        1.24630642      -6.50853510       7.11510982
C        1.78537910      -5.25249760       6.86418054
C        2.16204596      -4.90418301       5.56173382
C        3.55645820      -4.58495121       2.89466673
C        4.79253726      -5.06391481       3.68749359
C        3.98176684      -4.58991402       1.42211902
O        3.29404727      -3.23027149       3.30673069
C        2.49524882      -2.48127465       2.47993708
H        1.59945156      -0.31025887       6.08158619
H        0.33808458      -0.64823020       4.88912399
H        1.37403715       0.82285410       4.74300000
H        0.78484321       0.46601005       2.55023206
H        1.13589034      -2.38748064      -0.64092396
H        1.03279249      -5.39352685       0.19774965
H        1.31580285      -7.79565468       3.98518879
H        0.65738383      -8.40068609       6.25819850
H        1.90791453      -4.52856251       7.66493782
H        2.54029024      -3.89785359       5.40910115
H        4.67779325      -4.93971952       4.76761799
H        5.67555018      -4.46985039       3.42213200
H        5.01223389      -6.11809448       3.48540746
H        4.78547226      -3.86544038       1.23605817
H        4.33354372      -5.58133433       1.10811419
C        0.85678807      -6.86689516       8.45430865
C        0.53056645      -7.16702172       9.57588767
Br       0.00309368      -7.65230098      11.38938609
