161
Properties=species:S:1:pos:R:3 pbc="F F F"
C        0.00000000       0.00000000       0.00000000
C        2.17528025       4.71650972       0.29199063
O        2.14368489       4.35130656      -1.08302871
C        1.89229925       3.02690275      -1.33769719
C        1.08132555       2.22036751      -0.53814101
C        0.88263497       0.88263497      -0.88263497
C        1.47768230       0.33780126      -2.02051696
C        2.27305790       1.14485045      -2.84298949
C        2.96402714       0.58600024      -4.05690071
H        2.34475709      -0.18328924      -4.53163867
N        4.21393287      -0.01760366      -3.68994401
C        5.31933067       0.70476113      -3.33681139
O        6.23563596       0.08472850      -2.80007678
N        5.28127294       2.07736509      -3.59725351
C        6.32401287       2.91204555      -3.05308150
C        7.66571506       2.50360392      -3.11172847
C        8.69140085       3.29501225      -2.58276678
C        8.38504382       4.50798209      -1.97692542
Br       9.76313491       5.57506459      -1.24788284
C        7.06510296       4.93598040      -1.90097388
C        6.04437031       4.14387590      -2.43971660
C        4.09173995       2.69917727      -4.24515891
C        4.49142736       3.79746149      -5.25505681
C        3.26739444       1.68301391      -5.04339153
O        3.24737493       3.32377582      -3.25989869
C        2.47642136       2.48681303      -2.49322616
H        2.66503152       5.69242731       0.36616221
H        2.75806871       4.00532517       0.88795511
H        1.16028996       4.82106229       0.68716921
H        0.59049016       2.62121145       0.34263639
H        1.32542049      -0.71014199      -2.26716851
H        4.23936953      -0.97331961      -3.35801907
H        7.93965635       1.56610105      -3.59088892
H        9.71899640       2.94882038      -2.64845164
H        6.81058598       5.87444043      -1.41638844
H        5.02605115       4.50128008      -2.31991375
H        4.93694637       4.67297307      -4.77521133
H        3.60785934       4.17727032      -5.78240292
H        5.20018851       3.41676483      -5.99878249
H        2.33769671       2.13000666      -5.41926744
H        3.83122245       1.29156620      -5.90020359
C       -1.58952585      -0.05722396      -4.95304953
O       -2.48499833      -0.87954474      -4.21347709
C       -2.06027317      -1.23755463      -2.95907138
C       -1.26062542      -0.43124616      -2.14796249
C       -0.88263497      -0.88263497      -0.88263497
C       -1.29766142      -2.12784167      -0.41049744
C       -2.12052290      -2.93392769      -1.20644725
C       -2.55737842      -4.29933622      -0.75021345
H       -2.71735568      -4.30950314       0.33375229
N       -1.55186828      -5.27701156      -1.05739338
C       -1.30827483      -5.72811947      -2.32450889
O       -0.26649449      -6.35875479      -2.49519196
N       -2.25489078      -5.40151962      -3.29948114
C       -1.94089441      -5.66620558      -4.68203993
C       -1.34427002      -6.88044255      -5.05633489
C       -1.02460971      -7.15354822      -6.39102194
C       -1.29117229      -6.20614411      -7.37263494
Br      -0.84928284      -6.56213607      -9.17466342
C       -1.87771006      -4.99358965      -7.03075752
C       -2.20310978      -4.72979625      -5.69505678
C       -3.47154857      -4.61490412      -2.94962345
C       -4.72194701      -5.11762579      -3.70437287
C       -3.81926337      -4.71437875      -1.46015776
O       -3.29784401      -3.22981008      -3.30339536
C       -2.49514383      -2.48206422      -2.47925251
H       -1.89504936      -0.09288514      -6.00336211
H       -0.55851057      -0.42337571      -4.89355248
H       -1.65667328       0.98310262      -4.62061239
H       -0.93785491       0.54972803      -2.48093833
H       -0.98225062      -2.47175925       0.57156286
H       -0.77485380      -5.42349130      -0.42572389
H       -1.13502561      -7.64766826      -4.31395245
H       -0.56621986      -8.10514668      -6.64490188
H       -2.07704451      -4.23842743      -7.78594291
H       -2.62202710      -3.75314290      -5.47207499
H       -4.66954978      -4.93462761      -4.78095337
H       -5.61820741      -4.58387520      -3.36544996
H       -4.87871561      -6.19043795      -3.54658227
H       -4.64694638      -4.04254081      -1.19748362
H       -4.10506823      -5.73694244      -1.18098158
C       -3.01674099       4.19389123      -0.61083288
O       -2.70858499       4.09454781       0.77488736
C       -2.18408294       2.89321501       1.17960124
C       -1.37216633       2.08863212       0.37903562
C       -0.88263497       0.88263497       0.88263497
C       -1.18674233       0.46949706       2.17976114
C       -1.98008781       1.28114690       2.99966314
C       -2.36313994       0.85353198       4.39025619
H       -1.54871152       0.28786801       4.85652699
N       -3.52340615       0.00870121       4.35416586
C       -4.78276972       0.47637012       4.10176335
O       -5.64208710      -0.36417075       3.84252489
N       -4.95591747       1.86276234       4.13721173
C       -6.20419470       2.41432309       3.67062212
C       -7.42388071       1.82249383       4.03467291
C       -8.64537780       2.33741490       3.58638718
C       -8.66175751       3.45210411       2.75608971
Br     -10.30643564       4.14425431       2.13539239
C       -7.46942415       4.05643638       2.37619670
C       -6.25111036       3.54186126       2.83499118
C       -3.81450468       2.76719967       4.45437178
C       -4.24785384       3.95655052       5.33954130
C       -2.70629999       2.05216058       5.23533931
O       -3.25937258       3.32385892       3.24781794
C       -2.47573658       2.48957553       2.49114844
H       -3.68157223       5.05308235      -0.74335797
H       -3.54461876       3.30519432      -0.97437431
H       -2.11062836       4.37914650      -1.19559182
H       -1.10359836       2.39277677      -0.62730992
H       -0.81010772      -0.47999733       2.55233662
H       -3.42491592      -0.98388605       4.18303912
H       -7.44563679       0.95723858       4.69377095
H       -9.57025698       1.85551216       3.89049927
H       -7.46754003       4.91865311       1.71522172
H       -5.34558535       4.02337129       2.47828835
H       -4.91366633       4.65110392       4.82036051
H       -3.37800748       4.55704772       5.63247737
H       -4.75277160       3.61357388       6.24939035
H       -1.82712751       2.69738986       5.36245344
H       -3.05114841       1.74157820       6.23026564
C        1.90117210       0.14162619       4.84025344
O        2.69499043      -0.78060521       4.10242452
C        2.16873008      -1.18605863       2.90211048
C        1.36874435      -0.38047490       2.09061482
C        0.88263497      -0.88263497       0.88263497
C        1.18950492      -2.17859920       0.46789641
C        2.01164199      -2.98639149       1.26286436
C        2.33396280      -4.40252805       0.87043725
H        2.42233830      -4.48908081      -0.21831259
N        1.29281184      -5.29235065       1.30111073
C        1.10493353      -5.64865600       2.60731365
O        0.03994249      -6.19877892       2.88171983
N        2.13096441      -5.32538296       3.49954417
C        1.89181304      -5.48440370       4.91292318
C        1.24786698      -6.63229548       5.40088499
C        0.99945439      -6.80225166       6.76747382
C        1.38638703      -5.81610016       7.66746415
Br       1.04150995      -6.03220692       9.51236547
C        2.02228783      -4.66725447       7.21251493
C        2.27578388      -4.50700783       5.84517109
C        3.36801416      -4.64216506       3.02589691
C        4.63180051      -5.17805388       3.73409127
C        3.61162443      -4.85456115       1.52761431
O        3.30234946      -3.22974193       3.29895805
C        2.49490943      -2.48308437       2.47846675
H        2.27147314       0.15027230       5.87009578
H        0.84807964      -0.15978619       4.86757293
H        2.00986361       1.15321030       4.43752974
H        1.12863359       0.63783970       2.37827133
H        0.79065826      -2.56051704      -0.46872828
H        0.46896319      -5.42630863       0.72879718
H        0.94452849      -7.42812783       4.72399000
H        0.50138147      -7.70485538       7.11003157
H        2.31585159      -3.88201453       7.90354874
H        2.73807275      -3.57500443       5.53416781
H        4.66062895      -4.92678767       4.79771413
H        5.53502788      -4.72523766       3.30726703
H        4.71234203      -6.26639497       3.63699883
H        4.45990844      -4.25510954       1.17195284
H        3.81587381      -5.90862323       1.29849521
