133
Properties=species:S:1:pos:R:3 pbc="F F F"
C        0.00000000       0.00000000       0.00000000
C        0.88134126       0.88134126      -0.88134126
C        0.73401018       2.26614324      -0.84284563
C        1.56126971       3.07450176      -1.62762848
C        2.55285635       2.50037187      -2.43476728
C        2.66383655       1.10448091      -2.49203416
C        1.83395826       0.29577033      -1.71136230
N        3.43834158       3.33792579      -3.17416604
C        2.80984921       4.31492670      -4.08716402
H        1.71764090       4.26254570      -3.97853635
C        3.09493845       3.94503754      -5.52394073
C        3.44546158       4.95582089      -6.32804196
S        3.40392061       6.46632309      -5.48788567
O        2.15859253       7.13736123      -5.80446322
O        4.68026308       7.13980033      -5.60228308
C        3.25096060       5.76197061      -3.85322158
C        4.84743941       3.18305425      -3.18483523
O        5.52742528       3.78628796      -4.02054199
C        5.50751245       2.34193075      -2.19528481
C        6.75590168       1.74377026      -2.23260998
C        6.89862038       1.01007243      -1.02967525
C        5.75045525       1.23691503      -0.30867814
Br       5.35759249       0.49638316       1.35668796
O        4.92314000       2.07256428      -0.98723276
H       -0.00423800       2.72639231      -0.19079651
H        1.45906577       4.15372276      -1.54917996
H        3.40068493       0.62907600      -3.13454992
H        1.94942939      -0.78430100      -1.74808591
H        3.03633761       2.91947572      -5.86879868
H        3.70797168       4.89703404      -7.37171392
H        2.49683670       6.32633961      -3.29616905
H        4.21201808       5.85818369      -3.34380922
H        7.45953682       1.81640371      -3.05169839
H        7.73459471       0.39279368      -0.73116450
C       -0.88134126      -0.88134126      -0.88134126
C       -1.79520010      -1.75365327      -0.29414568
C       -2.62297361      -2.53887726      -1.10154908
C       -2.55432968      -2.43603182      -2.49763399
C       -1.60397860      -1.58236974      -3.07400328
C       -0.77298368      -0.80073949      -2.26736774
N       -3.45380909      -3.18744163      -3.30918268
C       -3.46518528      -4.64963176      -3.09712288
H       -2.79229281      -4.90089826      -2.26553188
C       -2.90030798      -5.35689154      -4.30671720
C       -3.57363253      -6.43804967      -4.71764224
S       -4.90768217      -6.77854767      -3.67189953
O       -4.51809184      -7.82959552      -2.75272961
O       -6.13661979      -6.85225802      -4.43346868
C       -4.84993935      -5.22560744      -2.79060600
C       -4.20545618      -2.63382808      -4.37604463
O       -4.77897320      -3.37815381      -5.17712822
C       -4.33611483      -1.18988712      -4.51872607
C       -4.66272098      -0.43605601      -5.63350493
C       -4.62290212       0.92354870      -5.23901464
C       -4.31811700       0.92068202      -3.89861344
Br      -4.09716742       2.43849693      -2.83861720
O       -4.18360808      -0.35250065      -3.44682831
H       -1.88670640      -1.81377329       0.78752887
H       -3.35895182      -3.17983126      -0.62318540
H       -1.50391177      -1.50657038      -4.15382870
H       -0.05835168      -0.12499472      -2.72986790
H       -2.01580374      -4.99288569      -4.81592258
H       -3.34768400      -7.06248297      -5.56655268
H       -4.97482951      -5.42300302      -1.72151284
H       -5.67802976      -4.60207092      -3.13391031
H       -4.87629803      -0.83453295      -6.61680795
H       -4.79341130       1.79322088      -5.85836247
C       -0.88134126       0.88134126       0.88134126
C       -2.09047516       1.36555147       0.38697241
C       -2.91133488       2.14786819       1.20419688
C       -2.53512032       2.42793280       2.52494238
C       -1.29860354       1.96594961       2.99579847
C       -0.47548162       1.18788128       2.17772800
N       -3.41401566       3.16479219       3.37162556
C       -3.84832158       4.48733327       2.87628507
H       -3.44817086       4.64538594       1.86516615
C       -3.25250306       5.58465733       3.72675633
C       -4.08541466       6.57464413       4.06926564
S       -5.64629954       6.35197327       3.35985658
O       -5.73941824       7.18431344       2.17668529
O       -6.67005468       6.36903763       4.38325418
C       -5.36757474       4.66884645       2.82973161
C       -3.76187789       2.76652045       4.68693055
O       -4.33342031       3.56043916       5.44039576
C       -3.48051865       1.41419461       5.15001476
C       -3.36537697       0.92609113       6.44081381
C       -3.05459242      -0.45159843       6.33537407
C       -3.04100372      -0.73539314       4.99043784
Br      -2.65381977      -2.39857095       4.24203887
O       -3.33734312       0.37615522       4.26943869
H       -2.41304228       1.12228132      -0.62237278
H       -3.87021436       2.47830195       0.81345216
H       -0.96425569       2.19568617       4.00436899
H        0.46906586       0.81613292       2.56614723
H       -2.21919180       5.55391633       4.05150388
H       -3.86148172       7.43086812       4.68436981
H       -5.75479067       4.55160254       1.81295216
H       -5.91693833       4.00079026       3.49628240
H       -3.47009230       1.51438929       7.34315733
H       -2.86301866      -1.14606882       7.14160306
C        0.88134126      -0.88134126       0.88134126
C        0.30918916      -1.61680371       1.91700618
C        1.11168078      -2.44670984       2.70500933
C        2.48397890      -2.56025132       2.44376528
C        3.05167996      -1.78544356       1.42322810
C        2.25073318      -0.95206298       0.63829474
N        3.27866322      -3.46507528       3.20669492
C        3.24637680      -3.29187837       4.67368475
H        2.52951957      -2.49941922       4.92978416
C        4.58721183      -2.80524984       5.17145505
C        5.05134580      -3.40236973       6.27560890
S        3.91641580      -4.55419884       6.88751473
O        3.17988001      -3.94383567       7.97670130
O        4.54348157      -5.85147780       7.02738712
C        2.86396468      -4.55826818       5.44391992
C        4.18225800      -4.39669270       2.63637819
O        5.00110635      -4.97941354       3.35373535
C        4.13291464      -4.69958905       1.21222433
C        5.10548583      -5.23941194       0.38738415
C        4.55493130      -5.29951362      -0.91607687
C        3.26588884      -4.83517319      -0.80501361
Br       2.05910919      -4.65263755      -2.21445905
O        2.98987962      -4.50933363       0.48372378
H       -0.76059557      -1.56876281       2.10478358
H        0.63800402      -3.04502724       3.47893722
H        4.11865824      -1.82651378       1.21913883
H        2.70220458      -0.37664614      -0.16563643
H        5.14117145      -2.03411755       4.64932301
H        5.98947738      -3.21516405       6.77207823
H        1.81969911      -4.52980884       5.76983742
H        3.03688285      -5.48472354       4.89240460
H        6.10100864      -5.52672625       0.69990403
H        5.04152185      -5.63752600      -1.82049495
