162
Properties=species:S:1:pos:R:3 pbc="F F F"
C        1.79186829       1.79186829      -1.79186829
C        1.42820493       3.11690227      -2.02654638
C        2.23530818       3.92076838      -2.83242050
C        3.40016224       3.39769909      -3.39648709
O        4.14376345       4.25104094      -4.17587463
C        5.33914848       3.80487021      -4.73590601
N        6.02851305       4.74567385      -5.46244883
C        7.15842883       4.39870228      -5.98515072
N        7.67790758       3.13538059      -5.87195238
H        8.57301201       2.89266320      -6.27028840
C        7.04307159       2.15501729      -5.17401567
O        7.50723300       1.02553172      -5.06518891
C        5.76458916       2.54362208      -4.56116148
C        5.02631439       1.51973468      -3.77331375
C        3.76910230       2.06987679      -3.16223674
C        2.95470456       1.26375794      -2.35435253
C        7.96553691       5.34876351      -6.77641965
C        8.24501036       5.04053032      -8.11342494
C        8.98490378       5.93906509      -8.87973714
C        9.44311784       7.13644007      -8.32859126
C        9.16310824       7.44212017      -6.99435013
C        8.42648874       6.54645760      -6.21912425
O        8.19977113       6.82407325      -4.90224354
H        0.52421453       3.53200721      -1.58929048
H        1.95972890       4.95536977      -3.02019548
H        5.67032390       1.14393552      -2.96881534
H        4.76093140       0.67882690      -4.42580653
H        3.23154866       0.22902642      -2.16601666
H        7.86858066       4.12194826      -8.55570672
H       10.02073957       7.83617624      -8.92846237
H        9.53757538       8.37128652      -6.57425265
H        8.35239062       7.76903645      -4.73819851
C        9.27872276       5.62937135     -10.25500446
C        9.52479615       5.37000284     -11.40679084
Br       9.92267602       4.95062591     -13.26913200
C       -1.79186829      -1.79186829      -1.79186829
C       -2.85550973      -1.22445495      -2.49168890
C       -3.65981568      -2.03190104      -3.29678034
C       -3.39599126      -3.39883102      -3.39952613
O       -4.23003762      -4.12739181      -4.21324960
C       -3.99791931      -5.48962618      -4.39237921
N       -4.86110417      -6.11848856      -5.25704299
C       -4.68017870      -7.37783377      -5.48426937
N       -3.69207554      -8.11183957      -4.88132545
H       -3.55569491      -9.08983125      -5.09043745
C       -2.80942251      -7.55316667      -4.00951537
O       -1.92041061      -8.20477224      -3.47277078
C       -2.99584784      -6.11708961      -3.75643528
C       -2.05465550      -5.44327389      -2.82143343
C       -2.32932539      -3.97133702      -2.70055341
C       -1.52459394      -3.15802073      -1.89020036
C       -5.55854582      -8.12905780      -6.40311644
C       -6.28487218      -9.21494862      -5.89914482
C       -7.13664256      -9.91839019      -6.74867326
C       -7.27192068      -9.54872212      -8.08750637
C       -6.54634645      -8.46487150      -8.58836059
C       -5.68853110      -7.75775311      -7.74578638
O       -4.94218881      -6.73288186      -8.25101725
H       -3.06594874      -0.16093177      -2.41863169
H       -4.49096586      -1.59773583      -3.84659245
H       -1.02626423      -5.57860160      -3.17820893
H       -2.13909502      -5.89917963      -1.82729019
H       -0.69253699      -3.59284539      -1.34120935
H       -6.20373320      -9.49128817      -4.85121428
H       -7.93708633     -10.09939685      -8.74889500
H       -6.65081422      -8.19650347      -9.63579686
H       -5.31915709      -6.44276128      -9.09770722
C       -7.88595888     -11.03768520      -6.23945449
C       -8.51351129     -11.97509476      -5.81298378
Br      -9.52821048     -13.49080674      -5.12341670
C       -1.79186829       1.79186829       1.79186829
C       -2.87832521       1.23158449       2.46174388
C       -3.68258881       2.03901531       3.26689294
C       -3.39600502       3.39876609       3.39957730
O       -4.23158604       4.12772993       4.21136306
C       -3.97819081       5.48198859       4.41974530
N       -4.84564417       6.11090240       5.28008915
C       -4.64617358       7.36237936       5.53372889
N       -3.63400021       8.08883901       4.96240134
H       -3.48381818       9.06020535       5.19194008
C       -2.74568302       7.52986173       4.09655981
O       -1.83527957       8.17457707       3.58809699
C       -2.95337388       6.10228124       3.81371760
C       -2.00745615       5.42826423       2.88364244
C       -2.30644813       3.96406976       2.73069794
C       -1.50176844       3.15085808       1.92018851
C       -5.52758819       8.11291315       6.45021873
C       -6.22472744       9.22095233       5.95328585
C       -7.07914124       9.92448399       6.80008078
C       -7.24574490       9.53320012       8.12920414
C       -6.54926314       8.42727074       8.62304465
C       -5.68900113       7.71982619       7.78324326
O       -4.97077140       6.67239445       8.28292207
H       -3.10659703       0.17361779       2.36529739
H       -4.53145507       1.61036463       3.79347445
H       -0.98353539       5.53813204       3.26140733
H       -2.06528981       5.90356832       1.89670670
H       -0.65199892       3.58013641       1.39445640
H       -6.11929651       9.51467148       4.91226765
H       -7.91291321      10.08398143       8.78848354
H       -6.67786168       8.14195943       9.66329343
H       -5.36847271       6.37399456       9.11715832
C       -7.79856143      11.06643497       6.29810216
C       -8.40107585      12.02281892       5.87769506
Br      -9.37529069      13.56921088       5.19793235
C        1.79186829      -1.79186829       1.79186829
C        1.38319987      -3.08842898       2.10002472
C        2.19038577      -3.89235315       2.90575814
C        3.40010408      -3.39785917       3.39638516
O        4.14064381      -4.24948169       4.18055352
C        5.37740465      -3.83326172       4.66925834
N        6.05777495      -4.77202184       5.40683893
C        7.22334366      -4.45350233       5.86543584
N        7.79029152      -3.22028261       5.67466642
H        8.71158434      -3.00071030       6.02366898
C        7.16728488      -2.24323558       4.96158410
O        7.67355042      -1.14097281       4.78343040
C        5.84768397      -2.60056111       4.42112764
C        5.11930156      -1.57930553       3.62075572
C        3.81417618      -2.09873038       3.08830927
C        2.99971595      -1.29232049       2.28077859
C        8.02370469      -5.40396596       6.66304942
C        8.37475659      -5.05209636       7.97211266
C        9.10910607      -5.94921652       8.74538342
C        9.49146272      -7.18790653       8.22877992
C        9.14010578      -7.53708721       6.92238554
C        8.40850883      -6.64335558       6.14020618
O        8.11229822      -6.96614413       4.84764557
H        0.44402591      -3.48131999       1.72016631
H        1.87985072      -4.90490029       3.15054314
H        5.74246385      -1.26669190       2.77391900
H        4.91881236      -0.70064640       4.24610608
H        3.31149417      -0.27972306       2.03537450
H        8.05742832      -4.09989541       8.38891192
H       10.06490151      -7.88647287       8.83400380
H        9.45600741      -8.49882748       6.52827965
H        8.21741048      -7.92301972       4.71919537
C        9.47622866      -5.59490422      10.09196569
C        9.78369383      -5.29816767      11.21972834
Br      10.28083900      -4.81836977      13.04322516
C       -0.00445707       0.01189536      -1.78238275
H       -0.66409135       0.67374010      -2.43557963
H        0.65740317      -0.63156657      -2.45157240
C       -0.90989263      -0.90692880      -0.91072765
C        0.90977584       0.90977584      -0.90977584
C       -0.00465871       1.77757030       0.00794375
H       -0.66225468       2.44313916      -0.64384735
H        0.64322798       2.43503045       0.67728295
C       -1.78241447       0.00034974      -0.00472694
H       -2.45427497      -0.65498947       0.64260836
H       -2.43311707       0.67328779      -0.65473579
C       -0.91132561       0.90220522       0.91563759
C       -0.01476271      -0.02253852       1.78660255
H       -0.67934791      -0.69751639       2.42135241
H        0.63392994       0.61504881       2.47327442
C        0.01484550      -1.77751727      -0.01636693
H        0.67870853      -2.42144646      -0.68295456
H       -0.62264859      -2.45592969       0.64226336
C        1.78714474       0.01002794       0.00389507
H        2.44202412       0.67113390       0.66197326
H        2.45385902      -0.65136977      -0.64189061
C        0.91606151      -0.90478549       0.90901405
