154
Properties=species:S:1:pos:R:3 pbc="F F F"
C        1.79186829       1.79186829      -1.79186829
C        1.42820493       3.11690227      -2.02654638
C        2.23530818       3.92076838      -2.83242050
C        3.40016224       3.39769909      -3.39648709
O        4.14376345       4.25104094      -4.17587463
C        5.33914848       3.80487021      -4.73590601
N        6.02851305       4.74567385      -5.46244883
C        7.15842883       4.39870228      -5.98515072
N        7.67790758       3.13538059      -5.87195238
H        8.57301201       2.89266320      -6.27028840
C        7.04307159       2.15501729      -5.17401567
O        7.50723300       1.02553172      -5.06518891
C        5.76458916       2.54362208      -4.56116148
C        5.02631439       1.51973468      -3.77331375
C        3.76910230       2.06987679      -3.16223674
C        2.95470456       1.26375794      -2.35435253
C        7.96553691       5.34876351      -6.77641965
C        8.24501036       5.04053032      -8.11342494
C        8.98490378       5.93906509      -8.87973714
Br       9.37059738       5.53253283     -10.68503851
C        9.44311784       7.13644007      -8.32859126
C        9.16310824       7.44212017      -6.99435013
C        8.42648874       6.54645760      -6.21912425
O        8.19977113       6.82407325      -4.90224354
H        0.52421453       3.53200721      -1.58929048
H        1.95972890       4.95536977      -3.02019548
H        5.67032390       1.14393552      -2.96881534
H        4.76093140       0.67882690      -4.42580653
H        3.23154866       0.22902642      -2.16601666
H        7.86858066       4.12194826      -8.55570672
H       10.02073957       7.83617624      -8.92846237
H        9.53757538       8.37128652      -6.57425265
H        8.35239062       7.76903645      -4.73819851
C       -1.79186829      -1.79186829      -1.79186829
C       -2.74735468      -1.20463601      -2.61966289
C       -3.55186230      -2.01212736      -3.42450740
C       -3.39595611      -3.39910777      -3.39928454
O       -4.22276076      -4.12665451      -4.22126375
C       -4.09208057      -5.51290502      -4.27493912
N       -4.93558812      -6.14340740      -5.15764020
C       -4.84347502      -7.42750747      -5.27129935
N       -3.96948552      -8.18252443      -4.53323059
H       -3.89953411      -9.18214882      -4.65428068
C       -3.11304626      -7.62266001      -3.63639828
O       -2.32552868      -8.29370524      -2.97871971
C       -3.19785959      -6.16038981      -3.51112332
C       -2.27851355      -5.48536046      -2.55548880
C       -2.43782474      -3.99170347      -2.57168762
C       -1.63280950      -3.17797339      -1.76203213
C       -5.70810941      -8.18293401      -6.19967664
C       -6.55920969      -9.16378108      -5.67597484
C       -7.39876888      -9.86799547      -6.53694166
Br      -8.55017560     -11.19621108      -5.84178204
C       -7.39919494      -9.60207930      -7.90687493
C       -6.54925235      -8.62294101      -8.42738518
C       -5.70284474      -7.91611979      -7.57310606
O       -4.83685557      -6.99754407      -8.09168828
H       -2.87326566      -0.12568903      -2.64655752
H       -4.29904015      -1.56266257      -4.07359143
H       -1.24059856      -5.72880311      -2.81367308
H       -2.47703597      -5.84881202      -1.53971684
H       -0.88472258      -3.62823176      -1.11363739
H       -6.58237594      -9.35709034      -4.60676936
H       -8.05509272     -10.15317967      -8.57710579
H       -6.54996751      -8.43571370      -9.49743333
H       -5.12195244      -6.75095759      -8.98671555
C       -1.79186829       1.79186829       1.79186829
C       -2.83234474       1.21836827       2.52094056
C       -3.63669377       2.02582763       3.32597565
C       -3.39597977       3.39889439       3.39947426
O       -4.22847070       4.12711984       4.21508848
C       -4.01800276       5.49631536       4.36560658
N       -4.87689966       6.12528077       5.23445529
C       -4.71487761       7.39158089       5.43582334
N       -3.75121426       8.13203185       4.80199444
H       -3.62892927       9.11594478       4.99108956
C       -2.87425968       7.57345088       3.92439399
O       -2.00697438       8.23096239       3.36001686
C       -3.03902742       6.12990791       3.70043739
C       -2.10258720       5.45611789       2.76065773
C       -2.35255734       3.97755485       2.67110364
C       -1.54777017       3.16413911       1.86090575
C       -5.59020938       8.14358244       6.35692825
C       -6.34505025       9.20698139       5.84693397
C       -7.19416307       9.91043039       6.69911254
Br      -8.21612549      11.34951572       6.02252751
C       -7.29876034       9.56281506       8.04657376
C       -6.54476415       8.50138550       8.55342889
C       -5.68941724       7.79449533       7.70815802
O       -4.91565420       6.79247653       8.21795719
H       -3.02467836       0.15010322       2.47073062
H       -4.44985727       1.58695699       3.89847989
H       -1.07061864       5.61625902       3.09619710
H       -2.21304779       5.89228709       1.76022995
H       -0.73369753       3.60370012       1.28919408
H       -6.28768117       9.46562206       4.79293241
H       -7.96191125      10.11345830       8.71000863
H       -6.62560824       8.25028808       9.60721822
H       -5.27210032       6.51111539       9.07640988
C        1.79186829      -1.79186829       1.79186829
C        1.56859782      -3.16709408       1.83596168
C        2.37544083      -3.97085400       2.64220223
C        3.40026052      -3.39728552       3.39680239
O        4.15332015      -4.25351294       4.16384593
C        5.21804040      -3.75202761       4.90985669
N        5.93392270      -4.69399965       5.60871337
C        6.95013025      -4.29293917       6.29921242
N        7.32150005      -2.97650812       6.38723238
H        8.13213324      -2.68860239       6.91522798
C        6.65152226      -1.99308049       5.72750180
O        6.98409326      -0.81521710       5.79864327
C        5.50353153      -2.44033700       4.92550420
C        4.73592891      -1.41423071       4.16920320
C        3.62835254      -2.01878984       3.35407345
C        2.81425591      -1.21335188       2.54520724
C        7.77631343      -5.23917374       7.07523289
C        7.87004350      -5.06720527       8.46171685
C        8.62634755      -5.96683694       9.21052151
Br       8.76230232      -5.74326742      11.08259898
C        9.28349029      -7.03178179       8.59287708
C        9.18862221      -7.20162486       7.20933147
C        8.43686129      -6.30339050       6.45181881
O        8.38928986      -6.44188806       5.09491000
H        0.77434297      -3.62132660       1.24984263
H        2.20887993      -5.04429110       2.68212312
H        5.41272379      -0.87607971       3.49427125
H        4.30138482      -0.69246370       4.87171632
H        2.98210964      -0.13958148       2.50490061
H        7.33922978      -4.25527584       8.95173002
H        9.87353720      -7.73259471       9.17924627
H        9.71638593      -8.02690429       6.73982432
H        8.67238752      -7.33784380       4.84939427
C       -0.00445707       0.01189536      -1.78238275
H       -0.66409135       0.67374010      -2.43557963
H        0.65740317      -0.63156657      -2.45157240
C       -0.90989263      -0.90692880      -0.91072765
C        0.90977584       0.90977584      -0.90977584
C       -0.00465871       1.77757030       0.00794375
H       -0.66225468       2.44313916      -0.64384735
H        0.64322798       2.43503045       0.67728295
C       -1.78241447       0.00034974      -0.00472694
H       -2.45427497      -0.65498947       0.64260836
H       -2.43311707       0.67328779      -0.65473579
C       -0.91132561       0.90220522       0.91563759
C       -0.01476271      -0.02253852       1.78660255
H       -0.67934791      -0.69751639       2.42135241
H        0.63392994       0.61504881       2.47327442
C        0.01484550      -1.77751727      -0.01636693
H        0.67870853      -2.42144646      -0.68295456
H       -0.62264859      -2.45592969       0.64226336
C        1.78714474       0.01002794       0.00389507
H        2.44202412       0.67113390       0.66197326
H        2.45385902      -0.65136977      -0.64189061
C        0.91606151      -0.90478549       0.90901405
