166
Properties=species:S:1:pos:R:3 pbc="F F F"
C        1.79123479       1.79123479      -1.79123479
C        2.31048762       2.98281367      -1.29231964
C        3.09486487       3.80114166      -2.11653949
C        3.35733296       3.43725431      -3.44441532
C        2.84801891       2.22354192      -3.91720308
C        2.06598136       1.40328478      -3.09714687
N        4.11722647       4.32688820      -4.23520387
C        4.40922687       4.20332897      -5.58552397
O        4.04934992       3.28798428      -6.31333315
C        5.20541699       5.31274374      -6.11331476
N        5.65657658       6.34261750      -5.33263810
N        6.39145235       7.14129061      -6.09004332
N        6.33196512       6.70448332      -7.37609262
C        6.92028472       7.47049104      -8.41951416
C        7.97358894       8.34604841      -8.10975832
C        8.59218009       9.09062183      -9.11834302
C        8.14055526       8.98667191     -10.43159618
C        7.07253098       8.14870063     -10.74567720
C        6.46135477       7.38922431      -9.74148741
C        5.66172979       5.49055451      -7.41424578
C        5.57724547       4.58254413      -8.58617329
H        2.10492890       3.28695244      -0.26919986
H        3.48253016       4.72972345      -1.70454985
H        3.03702508       1.87529159      -4.92717971
H        1.67621596       0.47088732      -3.49742298
H        4.46035553       5.17265477      -3.79178310
H        8.34962188       8.43477249      -7.09149244
H        9.42446776       9.74349114      -8.86752839
H        6.70218917       8.08627574     -11.76642579
H        5.60173495       6.78563363     -10.01722599
H        5.59900955       3.53391649      -8.27339310
H        6.42761670       4.70445248      -9.26343256
H        4.64986183       4.75152300      -9.14145576
C        8.77561536       9.75616486     -11.46995029
C        9.30747820      10.40061521     -12.33957185
Br      10.16745542      11.44263692     -13.74567638
C       -1.79123479      -1.79123479      -1.79123479
C       -1.80210428      -1.61168626      -3.17183040
C       -2.63560767      -2.40504505      -3.97189331
C       -3.46747911      -3.37522147      -3.39630201
C       -3.42142881      -3.55698675      -2.01034834
C       -2.58968927      -2.76815336      -1.20857039
N       -4.31563277      -4.11056496      -4.25312081
C       -5.27348443      -5.04259703      -3.88199835
O       -5.53565886      -5.37963329      -2.73537519
C       -6.00162999      -5.61313345      -5.01671206
N       -5.72386401      -5.29036811      -6.31760006
N       -6.50815405      -6.01673127      -7.09790097
N       -7.36848234      -6.72495210      -6.31910663
C       -8.41601822      -7.47989379      -6.91437790
C       -8.26587967      -7.92614117      -8.23737483
C       -9.26523909      -8.69552709      -8.84037876
C      -10.42883523      -8.99409780      -8.13589031
C      -10.60523779      -8.52642940      -6.83524162
C       -9.59999153      -7.76979457      -6.22228039
C       -7.01512293      -6.56404369      -4.98736348
C       -7.56094844      -7.34001031      -3.84500414
H       -1.17369600      -0.85420074      -3.63318447
H       -2.63024438      -2.23995611      -5.04660297
H       -4.02271008      -4.30797201      -1.50881429
H       -2.58424069      -2.92700149      -0.13328408
H       -4.25790547      -3.91896231      -5.24792563
H       -7.35971653      -7.71335136      -8.80281891
H       -9.12273746      -9.05707548      -9.85567435
H      -11.52445933      -8.73707379      -6.29335758
H       -9.79515623      -7.38291710      -5.22652124
H       -6.78925738      -7.52567895      -3.09138281
H       -7.91605126      -8.32839739      -4.15105309
H       -8.38066402      -6.79776437      -3.36441221
C      -11.45966458      -9.78382952      -8.75823641
C      -12.32298415     -10.44522984      -9.27945127
Br     -13.71889889     -11.51465820     -10.12221162
C       -1.79123479       1.79123479       1.79123479
C       -2.42791606       2.90577118       1.25193370
C       -3.21206236       3.72681789       2.07366578
C       -3.35724221       3.44316841       3.43859197
C       -2.73061176       2.30404407       3.95410807
C       -1.94837286       1.48122129       3.13681886
N       -4.12444622       4.33440235       4.22046996
C       -4.31490342       4.28953193       5.59364445
O       -3.84136813       3.45569029       6.35360891
C       -5.15189790       5.37796933       6.10160826
N       -5.72813096       6.31578599       5.28791522
N       -6.46610618       7.11577731       6.04090280
N       -6.28845522       6.77827213       7.34581373
C       -6.85891970       7.57636676       8.37500346
C       -7.99137090       8.35408019       8.08394458
C       -8.59275769       9.12627922       9.08210803
C       -8.04716596       9.14843928      10.36321810
C       -6.90249714       8.40943426      10.65497740
C       -6.30711285       7.62222327       9.66273037
C       -5.53102061       5.61831853       7.41719094
C       -5.30207365       4.80534795       8.63854129
H       -2.31446473       3.14819513       0.19842134
H       -3.69288719       4.59482829       1.62908799
H       -2.82528446       2.01789089       4.99632104
H       -1.46597268       0.60870741       3.56984617
H       -4.55707781       5.12073473       3.74698086
H       -8.44072490       8.34323625       7.09192566
H       -9.48517138       9.70158826       8.84872765
H       -6.46054337       8.44624378      11.64810355
H       -5.38938761       7.09960099       9.91560596
H       -5.26890148       3.73775081       8.39966685
H       -6.11137396       4.91829822       9.36582955
H       -4.35399761       5.07631948       9.11252351
C       -8.66473581       9.94647958      11.39051511
C       -9.18195056      10.61483834      12.25087636
Br     -10.01824307      11.69551792      13.64200773
C        1.79123479      -1.79123479       1.79123479
C        1.84068402      -1.57865183       3.16628509
C        2.67432958      -2.37284402       3.96537243
C        3.46794653      -3.37699944       3.39405662
C        3.38315108      -3.59105495       2.01455787
C        2.55111626      -2.80147068       1.21382607
N        4.31904522      -4.11220097       4.24807234
C        5.24456103      -5.07641111       3.87710767
O        5.46998326      -5.44749677       2.73318731
C        5.98660444      -5.63720281       5.00766824
N        5.74908068      -5.27625943       6.30649206
N        6.53467367      -6.00275392       7.08535869
N        7.35803022      -6.75073458       6.30377627
C        8.40143029      -7.51679727       6.89206236
C        8.27339473      -7.92703506       8.22896589
C        9.26848949      -8.70615131       8.82650414
C       10.40668861      -9.05045113       8.10168360
C       10.56204508      -8.61891572       6.78594800
C        9.56051148      -7.85263788       6.17891714
C        6.97574779      -6.61338848       4.97739382
C        7.47413392      -7.43007271       3.84175626
H        1.24242742      -0.79487045       3.62378333
H        2.69961938      -2.18171213       5.03547196
H        3.95345775      -4.36863958       1.51739906
H        2.51515782      -2.98611133       0.14325712
H        4.29066235      -3.89520636       5.23892469
H        7.38694949      -7.67821440       8.81072292
H        9.14250458      -9.03937708       9.85360563
H       11.46217714      -8.86534595       6.22736762
H        9.74022535      -7.49493157       5.16943765
H        6.67972192      -7.61472907       3.11186815
H        7.81269398      -8.41926660       4.16354115
H        8.29456065      -6.92011354       3.32816641
C       11.43322172      -9.85021337       8.71829542
C       12.29294320     -10.52001424       9.23470782
Br      13.68304012     -11.60302561      10.06970299
C       -0.00445707       0.01189536      -1.78238275
H       -0.66409135       0.67374010      -2.43557963
H        0.65740317      -0.63156657      -2.45157240
C       -0.90989263      -0.90692880      -0.91072765
C        0.90977584       0.90977584      -0.90977584
C       -0.00465871       1.77757030       0.00794375
H       -0.66225468       2.44313916      -0.64384735
H        0.64322798       2.43503045       0.67728295
C       -1.78241447       0.00034974      -0.00472694
H       -2.45427497      -0.65498947       0.64260836
H       -2.43311707       0.67328779      -0.65473579
C       -0.91132561       0.90220522       0.91563759
C       -0.01476271      -0.02253852       1.78660255
H       -0.67934791      -0.69751639       2.42135241
H        0.63392994       0.61504881       2.47327442
C        0.01484550      -1.77751727      -0.01636693
H        0.67870853      -2.42144646      -0.68295456
H       -0.62264859      -2.45592969       0.64226336
C        1.78714474       0.01002794       0.00389507
H        2.44202412       0.67113390       0.66197326
H        2.45385902      -0.65136977      -0.64189061
C        0.91606151      -0.90478549       0.90901405
