137
Properties=species:S:1:pos:R:3 pbc="F F F"
C        0.00000000       0.00000000       0.00000000
C        0.88133077       0.88133077      -0.88133077
C        1.40058360       2.07290965      -0.38241562
C        2.18496085       2.89123764      -1.20663547
C        2.44742894       2.52735029      -2.53451130
C        1.93811488       1.31363789      -3.00729906
C        1.15607734       0.49338076      -2.18724284
N        3.20732244       3.41698417      -3.32529985
C        3.49932285       3.29342494      -4.67561994
O        3.13944589       2.37808025      -5.40342912
C        4.29551296       4.40283971      -5.20341074
N        4.74667256       5.43271347      -4.42273407
N        5.48154832       6.23138659      -5.18013930
N        5.42206110       5.79457930      -6.46618860
C        6.01038070       6.56058701      -7.50961014
C        7.06368491       7.43614439      -7.19985430
C        7.68227606       8.18071781      -8.20843900
C        7.23065123       8.07676788      -9.52169215
Br       8.06415629       9.08671366     -10.88451340
C        6.16262695       7.23879661      -9.83577317
C        5.55145075       6.47932029      -8.83158338
C        4.75182577       4.58065049      -6.50434176
C        4.66734145       3.67264010      -7.67626926
H        1.19502487       2.37704841       0.64070416
H        2.57262613       3.81981943      -0.79464583
H        2.12712106       0.96538757      -4.01727569
H        0.76631194      -0.43901670      -2.58751896
H        3.55045151       4.26275075      -2.88187908
H        7.43971785       7.52486847      -6.18158842
H        8.51456374       8.83358712      -7.95762436
H        5.79228514       7.17637172     -10.85652177
H        4.69183092       5.87572961      -9.10732196
H        4.68910553       2.62401247      -7.36348908
H        5.51771267       3.79454845      -8.35352853
H        3.73995781       3.84161898      -8.23155174
C       -0.88133077      -0.88133077      -0.88133077
C       -1.57021059      -0.32827534      -1.95742293
C       -2.40036697      -1.13788375      -2.74458323
C       -2.55245908      -2.50098856      -2.45584287
C       -1.83091284      -3.04151500      -1.38662399
C       -1.00012670      -2.23701800      -0.59955624
N       -3.43780531      -3.25173605      -3.26006510
C       -3.79989929      -4.57968420      -3.08878424
O       -3.40039256      -5.32014212      -2.20042059
C       -4.75909758      -5.05544727      -4.08721857
N       -5.21132556      -4.27442960      -5.11636494
N       -6.01088238      -5.01119041      -5.87100141
N       -6.17187393      -6.22686895      -5.28408612
C       -7.10033850      -7.16172556      -5.81851379
C       -7.44319521      -7.07872504      -7.17776335
C       -8.33040499      -8.00157405      -7.73945383
C       -8.90089417      -8.98859650      -6.93962059
Br     -10.10372259     -10.23353988      -7.69812088
C       -8.59658208      -9.05892158      -5.58169308
C       -7.69614263      -8.14705667      -5.01915513
C       -5.31757883      -6.32376893      -4.19547026
C       -5.02909893      -7.56080622      -3.42634567
H       -1.47462145       0.72994371      -2.18669138
H       -2.93245943      -0.67979693      -3.57483503
H       -1.88736763      -4.09379840      -1.12861829
H       -0.46052165      -2.68511881       0.23082627
H       -3.89740876      -2.77113985      -4.02653272
H       -7.00073984      -6.32169813      -7.82373676
H       -8.56495368      -7.94154128      -8.79928025
H       -9.06134608      -9.81312735      -4.95070520
H       -7.52221062      -8.20394254      -3.94872933
H       -3.98336467      -7.58874216      -3.10450023
H       -5.17522699      -8.46284055      -4.02772211
H       -5.65999078      -7.61872997      -2.53440777
C       -0.88133077       0.88133077       0.88133077
C       -0.84295675       2.26651363       0.74643848
C       -1.63329348       3.07059771       1.57894276
C       -2.45894964       2.49558539       2.55475549
C       -2.50222039       1.10131106       2.65552037
C       -1.71602891       0.29529010       1.82538193
N       -3.19624407       3.36273123       3.39063116
C       -3.99329775       3.00658782       4.46848217
O       -4.18627926       1.86641029       4.86826571
C       -4.60669637       4.15199072       5.14307633
N       -4.44498561       5.44206765       4.71506683
N       -5.17149193       6.22775138       5.49383089
N       -5.71437377       5.47852861       6.48992662
C       -6.42607088       6.10508478       7.54942219
C       -7.01655698       7.35908918       7.32403744
C       -7.74779352       7.98706996       8.33656938
C       -7.86448573       7.38010532       9.58452022
Br      -8.84944293       8.23120322      10.95473721
C       -7.25263215       6.15288625       9.83167834
C       -6.53355587       5.51326700       8.81553155
C       -5.45209066       4.13830129       6.24642607
C       -6.05410307       2.99070789       6.97143986
H       -0.19757802       2.72944857       0.00434254
H       -1.57961593       4.14980806       1.45766739
H       -3.13957522       0.59641660       3.37379250
H       -1.76446376      -0.78501569       1.93536612
H       -3.11300551       4.35991253       3.22216329
H       -6.94693110       7.84660605       6.35263758
H       -8.22237017       8.94488193       8.13852312
H       -7.32132526       5.69023276      10.81362061
H       -6.03101876       4.58250191       9.06136183
H       -6.23253600       2.14857824       6.29549283
H       -7.03149635       3.23878768       7.39550563
H       -5.39246014       2.64811117       7.77255722
C        0.88133077      -0.88133077       0.88133077
C        0.93592547      -0.66446592       2.25551748
C        1.76958648      -1.45877023       3.05447725
C        2.55809686      -2.46733519       2.48385846
C        2.46813713      -2.68557234       1.10534236
C        1.63606661      -1.89588645       0.30474788
N        3.40957962      -3.20252851       3.33749833
C        4.33076626      -4.17092875       2.96667272
O        4.55127731      -4.54643889       1.82323906
C        5.07465537      -4.73046658       4.09664147
N        4.84251243      -4.36455869       5.39504898
N        5.62827463      -5.09107554       6.17372404
N        6.44667048      -5.84424449       5.39191402
C        7.48949116      -6.61178112       5.97930556
C        7.36446614      -7.01727827       7.31793919
C        8.35896984      -7.79768178       7.91478126
C        9.49369380      -8.14801160       7.18740587
Br      10.84021760      -9.19942737       7.99573839
C        9.64617693      -7.72123722       5.86978258
C        8.64516219      -6.95368179       5.26351044
C        6.06053493      -5.70994737       4.06633572
C        6.55259361      -6.53190978       2.93174743
H        0.34169201       0.12272594       2.71240306
H        1.79896380      -1.26426355       4.12386404
H        3.03431237      -3.46660507       0.60886688
H        1.59604022      -2.08386886      -0.76509489
H        3.38511146      -2.98224149       4.32772839
H        6.48072090      -6.76370538       7.90174846
H        8.23523977      -8.12717571       8.94335974
H       10.54369173      -7.97238918       5.30909772
H        8.82275692      -6.59982485       4.25230072
H        5.75522628      -6.71634732       2.20503347
H        6.88899629      -7.52115107       3.25564230
H        7.37299462      -6.02627638       2.41385753
