174
Properties=species:S:1:pos:R:3 pbc="F F F"
C        1.79126762       1.79126762      -1.79126762
C        1.95493857       1.47769408      -3.13670984
C        2.77213906       2.27855830      -3.93931695
C        3.40680226       3.41654319      -3.41507694
C        3.23862705       3.70862052      -2.05409599
C        2.43450857       2.89884265      -1.24402503
C        4.28155467       4.24416550      -4.24858933
C        5.54731970       4.72769831      -3.96746309
N        6.11914203       5.24619418      -5.08637641
N        5.26027121       5.10268087      -6.08269689
N        4.09509027       4.61669829      -5.58111669
C        2.93379576       4.57075590      -6.39705774
C        3.06400676       4.45310376      -7.78614496
C        1.92279185       4.34474248      -8.59073664
C        0.64186073       4.40393266      -8.02842175
C        0.52261858       4.57430556      -6.64803635
C        1.65751267       4.65486614      -5.83393015
N       -0.46070102       4.27130239      -8.89528134
C       -1.80240759       4.42313997      -8.58548495
O       -2.24362037       4.76877096      -7.49449997
C       -2.68559178       4.15238504      -9.70519840
C       -4.05290709       4.31386679      -9.82763760
C       -4.40285662       3.87005613     -11.12447846
C       -3.23073670       3.45940786     -11.71667617
Br      -3.09344614       2.74884896     -13.43627019
O       -2.17882603       3.63795623     -10.87091730
H        1.46066679       0.61239667      -3.57116444
H        2.90518728       1.99473965      -4.98168443
H        3.73022671       4.56968579      -1.60600998
H        2.31974617       3.13968691      -0.19019367
H        6.09429740       4.66768800      -3.03692400
H        4.04661738       4.40208246      -8.25401959
H        2.05660047       4.21879708      -9.66281841
H       -0.44501673       4.63894750      -6.16040695
H        1.50661874       4.81542773      -4.76947990
H       -0.26507588       4.05716485      -9.86742610
H       -4.70626057       4.70576348      -9.05891939
H       -5.38997399       3.84804221     -11.56518941
C       -1.79126762      -1.79126762      -1.79126762
C       -1.27866033      -2.97220659      -2.31847557
C       -2.08299227      -3.77168345      -3.13533859
C       -3.41455523      -3.41696284      -3.40690433
C       -3.90849912      -2.21704096      -2.87580348
C       -3.10009009      -1.40592632      -2.07135984
C       -4.25202093      -4.24140531      -4.28088326
C       -5.05999837      -3.84892321      -5.33355952
N       -5.47873865      -4.93059965      -6.04237433
N       -4.95623876      -6.00874164      -5.48066857
N       -4.31546147      -5.63472151      -4.34272226
C       -3.84956676      -6.61981709      -3.43222555
C       -3.50805932      -7.89415981      -3.90103635
C       -2.98936354      -8.85017794      -3.01872947
C       -2.85345788      -8.56638807      -1.65436918
C       -3.24621267      -7.31054483      -1.18820299
C       -3.73868006      -6.34016971      -2.06745919
N       -2.30894127      -9.56899096      -0.82795050
C       -2.20020012      -9.55911079       0.55309358
O       -2.63144002      -8.68034807       1.29213753
C       -1.52754810     -10.73003575       1.08559219
C       -1.34133960     -11.13977667       2.39251898
C       -0.59422791     -12.34000868       2.34255862
C       -0.36379567     -12.59103855       1.00948689
Br       0.60376617     -14.04187957       0.34644038
O       -0.93644237     -11.62869974       0.23509461
H       -0.25676388      -3.27831761      -2.10914641
H       -1.64828177      -4.67594483      -3.55738476
H       -4.92828113      -1.89743418      -3.08020717
H       -3.50016553      -0.47732817      -1.67213305
H       -5.30351443      -2.84456771      -5.65082725
H       -3.60013190      -8.14541294      -4.95717458
H       -2.69998097      -9.81931935      -3.41891564
H       -3.17430869      -7.04080019      -0.13922885
H       -4.05571373      -5.38954185      -1.64627079
H       -1.96839165     -10.41071235      -1.28041108
H       -1.70729628     -10.61900350       3.26787747
H       -0.26169838     -12.93994674       3.17838749
C       -1.79126762       1.79126762       1.79126762
C       -2.28556380       1.29185070       2.99192799
C       -3.10251533       2.09584695       3.79165203
C       -3.40686098       3.41474928       3.41681213
C       -2.90867248       3.89521292       2.19745816
C       -2.10427930       3.08667477       1.38642218
C       -4.28107625       4.25125885       4.24197439
C       -5.35671257       5.03103383       3.85473472
N       -6.05268810       5.45718339       4.94184113
N       -5.46026041       4.96677505       6.01861351
N       -4.31737863       4.34076755       5.63475906
C       -3.37918618       3.91181909       6.61060413
C       -3.81666350       3.58638779       7.90020419
C       -2.90617487       3.10354750       8.84854860
C       -1.54511638       2.98833611       8.54076264
C       -1.11093080       3.36530690       7.26872279
C       -2.01813208       3.82170615       6.30647073
N       -0.68909483       2.47952356       9.53726434
C        0.69336912       2.39714967       9.50243678
O        1.40681732       2.82521389       8.60125399
C        1.26132214       1.75790140      10.67541240
C        2.57927127       1.60488173      11.06298683
C        2.56700498       0.88059079      12.27809216
C        1.24376668       0.62956148      12.55955253
Br       0.62777336      -0.32196298      14.04140936
O        0.43997438       1.16828091      11.60174097
H       -2.05042767       0.28035158       3.31344865
H       -3.49852737       1.67089990       4.71218410
H       -3.13910275       4.90442875       1.86239099
H       -1.73086728       3.47608511       0.44267436
H       -5.69791508       5.24870179       2.85229252
H       -4.86938244       3.66306426       8.17027273
H       -3.28193460       2.82556376       9.83071761
H       -0.06612322       3.30829183       6.97992267
H       -1.62156387       4.12809637       5.34186612
H       -1.11855433       2.14689347      10.39406727
H        3.43713526       1.97731390      10.51824367
H        3.42055047       0.57598260      12.86782550
C        1.79126762      -1.79126762       1.79126762
C        2.96432191      -2.33119835       1.27382223
C        3.76370518      -3.14802402       2.07828511
C        3.41702001      -3.40692294       3.41447945
C        2.22487218      -2.86309606       3.91337532
C        1.41372800      -2.05863177       3.10501648
C        4.24118971      -4.28080151       4.25231828
C        3.84694252      -5.32440380       5.07113478
N        4.92640862      -6.03820554       5.48709847
N        6.00475380      -5.48858239       4.95231278
N        5.63444272      -4.35267747       4.30578505
C        6.62278664      -3.45315684       3.82566592
C        7.89096816      -3.93411700       3.47817031
C        8.84962662      -3.06296068       2.94568366
C        8.57504707      -1.69755372       2.80161434
C        7.32573095      -1.21899376       3.20023578
C        6.35254122      -2.08718769       3.70658005
N        9.57967413      -0.88282743       2.24338116
C        9.57931879       0.49739858       2.12429712
O        8.70939637       1.24626326       2.55651745
C       10.74908967       1.01599123       1.43889322
C       11.16719186       2.31835690       1.23976234
C       12.36134315       2.25374457       0.48407939
C       12.60063409       0.91712753       0.26184078
Br      14.03912400       0.23592099      -0.71152999
O       11.63687084       0.15433154       0.84750820
H        3.26427117      -2.13184602       0.24811072
H        4.66147317      -3.58012727       1.64001093
H        1.91144887      -3.05743718       4.93703642
H        0.49119229      -1.64942238       3.50901208
H        2.84210513      -5.63224940       5.32455487
H        8.13499079      -4.99140210       3.57632653
H        9.81353153      -3.47260622       2.65207821
H        7.06331641      -0.16858171       3.12243960
H        5.40751482      -1.65647371       4.02753784
H       10.41538849      -1.34416604       1.89996054
H       10.65576712       3.20033756       1.60299275
H       12.96499855       3.08250745       0.14076653
C       -0.00445707       0.01189536      -1.78238275
H       -0.66409135       0.67374010      -2.43557963
H        0.65740317      -0.63156657      -2.45157240
C       -0.90989263      -0.90692880      -0.91072765
C        0.90977584       0.90977584      -0.90977584
C       -0.00465871       1.77757030       0.00794375
H       -0.66225468       2.44313916      -0.64384735
H        0.64322798       2.43503045       0.67728295
C       -1.78241447       0.00034974      -0.00472694
H       -2.45427497      -0.65498947       0.64260836
H       -2.43311707       0.67328779      -0.65473579
C       -0.91132561       0.90220522       0.91563759
C       -0.01476271      -0.02253852       1.78660255
H       -0.67934791      -0.69751639       2.42135241
H        0.63392994       0.61504881       2.47327442
C        0.01484550      -1.77751727      -0.01636693
H        0.67870853      -2.42144646      -0.68295456
H       -0.62264859      -2.45592969       0.64226336
C        1.78714474       0.01002794       0.00389507
H        2.44202412       0.67113390       0.66197326
H        2.45385902      -0.65136977      -0.64189061
C        0.91606151      -0.90478549       0.90901405
