125
Properties=species:S:1:pos:R:3 pbc="F F F"
C        0.00000000       0.00000000       0.00000000
C        0.88138879       0.88138879      -0.88138879
C        0.67937638       2.26067349      -0.90194974
C        1.48110436       3.06124556      -1.71414008
C        2.47312049       2.47736706      -2.49850557
F        3.21466783       3.26724577      -3.28722552
C        2.69194807       1.09614336      -2.49138865
C        1.87906159       0.29740684      -1.66487973
C        3.77819312       0.50087404      -3.36762154
H        4.29387820       1.28343761      -3.93867370
C        3.19290544      -0.48780792      -4.36984960
C        3.54812517      -1.79207692      -4.37674629
N        4.49454344      -2.24371132      -3.46827651
C        5.15479830      -1.44239988      -2.61280811
N        6.13356071      -1.68560390      -1.77883211
C        6.38906952      -0.44951575      -1.24223840
N        5.62169118       0.55129468      -1.69101145
N        4.82314368      -0.11647010      -2.54826945
C        2.93177407      -2.67164729      -5.33319978
C        1.68178972      -2.60702019      -5.93922241
C        1.43104983      -3.68311240      -6.84361320
C        2.49680099      -4.54005106      -6.89400054
Br       2.54027580      -6.07313257      -7.96905378
S        3.77177736      -4.08413260      -5.88342092
H       -0.09506049       2.71829435      -0.29109306
H        1.33970997       4.13731079      -1.74252331
H        2.02588197      -0.78176151      -1.63048152
H        2.48292866      -0.07832978      -5.08169458
H        4.77409945      -3.21642472      -3.55706867
H        7.16295958      -0.27552778      -0.50529936
H        0.96114165      -1.82281192      -5.73838308
H        0.51738357      -3.80851235      -7.41149773
C       -0.88138879      -0.88138879      -0.88138879
C       -1.10486509      -0.52623993      -2.21089459
C       -1.91674492      -1.32946610      -3.01027897
C       -2.49867214      -2.47594326      -2.47437771
F       -3.29297787      -3.21807715      -3.25808410
C       -2.28624446      -2.84962807      -1.14360756
C       -1.46178963      -2.03333409      -0.34622444
C       -2.94629486      -4.10219412      -0.59819972
H       -3.55132168      -4.59435683      -1.37031100
C       -3.87165992      -3.77050416       0.56721696
C       -3.66735900      -4.27146189       1.80602636
N       -2.60479761      -5.13693665       2.02262563
C       -1.79086902      -5.58318360       1.04884609
N       -0.82513210      -6.46621551       1.06455869
C       -0.42856582      -6.50540913      -0.24781722
N       -1.08947206      -5.69299589      -1.08152937
N       -1.93851905      -5.09541524      -0.22100874
C       -4.56546276      -3.89064007       2.86277627
C       -5.31467330      -2.73135819       3.03203955
C       -6.09374794      -2.72641481       4.22861212
C       -5.90877943      -3.88119727       4.93922622
Br      -6.76239241      -4.24089225       6.56708766
S       -4.82622370      -4.95233667       4.20749469
H       -0.65225878       0.36879562      -2.63086375
H       -2.10137930      -1.06996342      -4.04820135
H       -1.27020211      -2.29775266       0.69335280
H       -4.70785805      -3.11706477       0.33862936
H       -2.53311730      -5.53587318       2.95424709
H        0.36358142      -7.15129310      -0.60501948
H       -5.30223904      -1.90516061       2.33068684
H       -6.74186356      -1.91523391       4.53672852
C       -0.88138879       0.88138879       0.88138879
C       -0.94480446       0.64355568       2.25363947
C       -1.75695581       1.44559887       3.05393531
C       -2.49860278       2.47369857       2.47669176
F       -3.28860346       3.21524923       3.26528642
C       -2.44812342       2.72875179       1.10260488
C       -1.62200923       1.91512002       0.30421890
C       -3.27876637       3.85381314       0.51410919
H       -3.85703837       4.36393697       1.29501417
C       -4.26887670       3.32239231      -0.51632189
C       -4.23088232       3.71208266      -1.81017045
N       -3.28571923       4.64506606      -2.21167666
C       -2.43518057       5.26035412      -1.37032816
N       -1.56927086       6.22216518      -1.56464712
C       -1.05992233       6.43015957      -0.30828973
N       -1.55591776       5.64903912       0.65904044
N       -2.41553973       4.89207026      -0.05266696
C       -5.17904179       3.14548618      -2.73120142
C       -5.81948712       1.91117680      -2.71667198
C       -6.70059358       1.71371594      -3.82275889
C       -6.69941099       2.80276256      -4.65142308
Br      -7.73083437       2.91604854      -6.21068590
S       -5.66819860       4.03725613      -4.13438905
H       -0.36734486      -0.15905824       2.70604029
H       -1.81833455       1.27658260       4.12462692
H       -1.55439175       2.08947693      -0.76926670
H       -5.01014864       2.62144765      -0.14530283
H       -3.34058410       4.95259489      -3.17843559
H       -0.30775360       7.17883772      -0.09386016
H       -5.65920886       1.16481785      -1.94731390
H       -7.28885287       0.81947697      -3.98796089
C        0.88138879      -0.88138879       0.88138879
C        1.04145995      -2.23079985       0.56973982
C        1.84077351      -3.03412925       1.38158724
C        2.46907771      -2.48366851       2.49624689
F        3.21352400      -3.28302765       3.27258747
C        2.32167540      -1.13248446       2.82532023
C        1.51518811      -0.32946066       1.99669939
C        3.01749376      -0.57584772       4.05334723
H        3.59068634      -1.35795296       4.56735021
C        2.00715167      -0.01812210       5.04967336
C        2.00559941       1.28433771       5.41153283
N        2.96737343       2.13645178       4.88818697
C        3.97061641       1.73315053       4.08774065
N        5.00154120       2.37569011       3.60093783
C        5.66977108       1.39759365       2.90961474
N        5.11156500       0.18115642       2.93358874
N        4.01167389       0.42983230       3.67310144
C        1.00325943       1.74446707       6.33453420
C       -0.28378959       1.27447212       6.57225365
C       -0.98073672       2.00766611       7.57995346
C       -0.20456002       3.02001973       8.07533023
Br      -0.77569730       4.20059863       9.41249294
S        1.32197428       3.10737939       7.35647079
H        0.55112840      -2.66261237      -0.29941386
H        1.97847215      -4.08678652       1.15428540
H        1.38303440       0.72877509       2.22034266
H        1.29771327      -0.73194296       5.45663723
H        2.96312047       3.08924121       5.24086414
H        6.59489395       1.57950686       2.37734408
H       -0.72217312       0.43939796       6.03828390
H       -1.99121628       1.79508728       7.90667251
