166
Properties=species:S:1:pos:R:3 pbc="F F F"
C        1.79171681       1.79171681      -1.79171681
C        3.10081857       2.07005209      -1.40165150
C        3.90686554       2.87676085      -2.20766087
C        3.40455014       3.40452498      -3.40379868
C        2.08764258       3.11849884      -3.78606432
C        1.28058499       2.31226655      -2.97966518
C        4.25115574       4.25065185      -4.25033156
C        4.98538874       3.70942457      -5.24073248
C        5.84945073       4.58863091      -6.13661219
H        6.89057698       4.25960762      -6.02022454
C        5.42326859       4.48059060      -7.59469415
C        6.33465899       4.02629075      -8.56259502
C        5.95417042       3.91139618      -9.90167062
C        4.65898789       4.24785258     -10.29307380
C        3.74882410       4.70292000      -9.34278378
C        4.12073955       4.82254382      -8.00371880
N        5.84289992       5.98703153      -5.69077804
N        6.65960220       6.94798332      -6.17202274
C        6.27443511       7.99124301      -5.42723722
N        5.31017523       7.73338222      -4.48629165
C        5.07469252       6.45713474      -4.65624041
N        4.26975541       5.60459161      -3.99318348
H        3.50162509       1.66601484      -0.47521201
H        4.92752917       3.09288559      -1.89793728
H        1.68319754       3.52416899      -4.71119431
H        0.25968109       2.09851954      -3.28574268
H        4.97650264       2.64146982      -5.43654268
H        7.35452963       3.76697532      -8.28347783
H        6.67078184       3.56396355     -10.64204144
H        4.37263027       4.15707984     -11.33750097
H        3.39725138       5.18599985      -7.27639851
H        6.71527835       8.97056528      -5.56457421
H        3.72768411       5.93898228      -3.20229892
C        2.41033366       5.05070499      -9.74414264
C        1.28934791       5.34197491     -10.08028069
Br      -0.52319123       5.81293375     -10.62378748
C       -1.79171681      -1.79171681      -1.79171681
C       -1.43327959      -2.01979363      -3.11944894
C       -2.23985157      -2.82560837      -3.92582732
C       -3.40416617      -3.40394101      -3.40476661
C       -3.75489489      -3.16802846      -2.06928238
C       -2.94883305      -2.36126021      -1.26242347
C       -4.25034368      -4.25063258      -4.25116288
C       -4.06155602      -5.58318920      -4.29080057
C       -4.95343130      -6.46875876      -5.15250377
H       -4.31033632      -6.97669720      -5.88337562
C       -5.69937039      -7.49234562      -4.30683732
C       -5.51715158      -8.86563788      -4.54075531
C       -6.18602555      -9.81572396      -3.76548772
C       -7.04548304      -9.40842090      -2.74601031
C       -7.23647309      -8.04994279      -2.50811201
C       -6.57409434      -7.09428162      -3.27862620
N       -5.88765289      -5.67418850      -5.95886810
N       -6.66056645      -6.17166530      -6.94737651
C       -7.27395595      -5.05672359      -7.36223581
N       -6.90076593      -3.89667358      -6.73240959
C       -6.00706122      -4.31061948      -5.87038697
N       -5.23164576      -3.63661914      -4.99926561
H       -0.53179488      -1.57610211      -3.53495495
H       -1.95695550      -2.99910297      -4.96229357
H       -4.65819380      -3.60838920      -1.65197784
H       -3.23199101      -2.18393337      -0.22801893
H       -3.28237379      -6.06454144      -3.70759991
H       -4.85906266      -9.20852563      -5.33739449
H       -6.04077843     -10.87557819      -3.96043020
H       -7.56306032     -10.15483644      -2.14931433
H       -6.74089505      -6.03693903      -3.08181567
H       -8.01003373      -5.08461971      -8.15576440
H       -5.28866126      -2.62365834      -4.95664572
C       -8.12321888      -7.62642603      -1.45553639
C       -8.86586848      -7.27173074      -0.57400430
Br     -10.06667007      -6.69821846       0.85135853
C       -1.79171681       1.79171681       1.79171681
C       -3.17669914       1.63629193       1.75953108
C       -3.98295298       2.44294096       2.56539332
C       -3.40471278       3.40430160       3.40385941
C       -2.01195770       3.55202904       3.42821899
C       -1.20499834       2.74593366       2.62158473
C       -4.25119137       4.25044174       4.25050604
C       -4.54514674       3.87940163       5.51099742
C       -5.40654188       4.76703480       6.40111715
H       -6.29916600       4.19144399       6.67979915
C       -4.64898230       5.20042054       7.64915049
C       -5.13826871       4.86307748       8.92219857
C       -4.44795315       5.24409582      10.07518826
C       -3.25982465       5.96653504       9.97355456
C       -2.76791678       6.30958975       8.71702136
C       -3.45170207       5.93489903       7.56040106
N       -5.92054792       5.93088373       5.66927784
N       -6.85645330       6.78073220       6.14242277
C       -6.98083717       7.61159700       5.10048118
N       -6.22300968       7.30898849       3.99785093
C       -5.58378560       6.23047482       4.37380725
N       -4.73244926       5.42394066       3.71114059
H       -3.63686831       0.89341556       1.11256807
H       -5.06378201       2.31926280       2.53530723
H       -1.54920245       4.29685027       4.07250812
H       -0.12548498       2.87077705       2.64768127
H       -4.17249368       2.95035961       5.93166185
H       -6.06893896       4.30813191       9.02791191
H       -4.84028296       4.98171235      11.05479151
H       -2.73070417       6.26028285      10.87622407
H       -3.05484593       6.21760107       6.58720274
H       -7.65180066       8.46051944       5.13809774
H       -4.50940763       5.61957019       2.73998750
C       -1.54079276       7.05531954       8.60906899
C       -0.51307639       7.67986824       8.51865888
Br       1.14865406       8.68971067       8.37247338
C        1.79171681      -1.79171681       1.79171681
C        1.50335324      -1.91955981       3.14960911
C        2.30995731      -2.72538856       3.95594139
C        3.40421638      -3.40390689       3.40475053
C        3.68487617      -3.26823114       2.03909843
C        2.87880617      -2.46151183       1.23219874
C        4.25037750      -4.25058387       4.25117777
C        3.98718014      -5.56435799       4.38400766
C        4.87755776      -6.45170601       5.24543007
H        4.25239382      -6.87554012       6.04247521
C        5.50898209      -7.56690529       4.42266595
C        5.26196571      -8.91036893       4.75121013
C        5.82523055      -9.94347374       3.99853294
C        6.64228489      -9.65007643       2.90755293
C        6.89693286      -8.32214712       2.57544791
C        6.34017046      -7.28416534       3.32266637
N        5.90447522      -5.67081494       5.94541933
N        6.70673968      -6.15674048       6.91612811
C        7.40843077      -5.05958870       7.22489588
N        7.06516791      -3.91731199       6.54736920
C        6.09732979      -4.32469498       5.76604291
N        5.31009858      -3.65589768       4.90153424
H        0.65661771      -1.39758129       3.58865293
H        2.08203861      -2.82046321       5.01585022
H        4.53350200      -3.78710768       1.59795116
H        3.10733622      -2.36251497       0.17409211
H        3.14675960      -6.02975689       3.87799866
H        4.63553044      -9.16499447       5.60445787
H        5.63088255     -10.97918332       4.26672094
H        7.07768596     -10.46050491       2.32902022
H        6.55573267      -6.25239901       3.05151807
H        8.18926753      -5.08669765       7.97445266
H        5.42321798      -2.65259618       4.79315116
C        7.74007507      -8.01620696       1.44889927
C        8.44620666      -7.75998207       0.50541479
Br       9.58796173      -7.34568809      -1.02011983
C       -0.00445707       0.01189536      -1.78238275
H       -0.66409135       0.67374010      -2.43557963
H        0.65740317      -0.63156657      -2.45157240
C       -0.90989263      -0.90692880      -0.91072765
C        0.90977584       0.90977584      -0.90977584
C       -0.00465871       1.77757030       0.00794375
H       -0.66225468       2.44313916      -0.64384735
H        0.64322798       2.43503045       0.67728295
C       -1.78241447       0.00034974      -0.00472694
H       -2.45427497      -0.65498947       0.64260836
H       -2.43311707       0.67328779      -0.65473579
C       -0.91132561       0.90220522       0.91563759
C       -0.01476271      -0.02253852       1.78660255
H       -0.67934791      -0.69751639       2.42135241
H        0.63392994       0.61504881       2.47327442
C        0.01484550      -1.77751727      -0.01636693
H        0.67870853      -2.42144646      -0.68295456
H       -0.62264859      -2.45592969       0.64226336
C        1.78714474       0.01002794       0.00389507
H        2.44202412       0.67113390       0.66197326
H        2.45385902      -0.65136977      -0.64189061
C        0.91606151      -0.90478549       0.90901405
