158
Properties=species:S:1:pos:R:3 pbc="F F F"
C        1.79171681       1.79171681      -1.79171681
C        3.10081857       2.07005209      -1.40165150
C        3.90686554       2.87676085      -2.20766087
C        3.40455014       3.40452498      -3.40379868
C        2.08764258       3.11849884      -3.78606432
C        1.28058499       2.31226655      -2.97966518
C        4.25115574       4.25065185      -4.25033156
C        4.98538874       3.70942457      -5.24073248
C        5.84945073       4.58863091      -6.13661219
H        6.89057698       4.25960762      -6.02022454
C        5.42326859       4.48059060      -7.59469415
C        6.33465899       4.02629075      -8.56259502
C        5.95417042       3.91139618      -9.90167062
C        4.65898789       4.24785258     -10.29307380
C        3.74882410       4.70292000      -9.34278378
Br       1.99139281       5.15955996      -9.86976597
C        4.12073955       4.82254382      -8.00371880
N        5.84289992       5.98703153      -5.69077804
N        6.65960220       6.94798332      -6.17202274
C        6.27443511       7.99124301      -5.42723722
N        5.31017523       7.73338222      -4.48629165
C        5.07469252       6.45713474      -4.65624041
N        4.26975541       5.60459161      -3.99318348
H        3.50162509       1.66601484      -0.47521201
H        4.92752917       3.09288559      -1.89793728
H        1.68319754       3.52416899      -4.71119431
H        0.25968109       2.09851954      -3.28574268
H        4.97650264       2.64146982      -5.43654268
H        7.35452963       3.76697532      -8.28347783
H        6.67078184       3.56396355     -10.64204144
H        4.37263027       4.15707984     -11.33750097
H        3.39725138       5.18599985      -7.27639851
H        6.71527835       8.97056528      -5.56457421
H        3.72768411       5.93898228      -3.20229892
C       -1.79171681      -1.79171681      -1.79171681
C       -1.25115319      -2.39521302      -2.92615595
C       -2.05758093      -3.20101785      -3.73268848
C       -3.40399743      -3.40409557      -3.40478080
C       -3.93683044      -2.79275931      -2.26261599
C       -3.13075195      -1.98583424      -1.45593054
C       -4.25025615      -4.25081478      -4.25106821
C       -4.38195196      -5.56487304      -3.98872080
C       -5.27808900      -6.44352340      -4.85308144
H       -4.64771801      -7.22499292      -5.29769821
C       -6.39492772      -7.07276022      -4.03086540
C       -6.50546634      -8.47084459      -3.94723384
C       -7.51788675      -9.06170877      -3.18764171
C       -8.43350635      -8.26556313      -2.50084478
C       -8.33562458      -6.87894979      -2.57995352
Br      -9.57515099      -5.79609386      -1.64947389
C       -7.32896163      -6.28039845      -3.33764209
N       -5.82293247      -5.70150370      -5.99627332
N       -6.48867436      -6.26383791      -7.02709600
C       -6.72631408      -5.18450708      -7.78209419
N       -6.21385583      -4.00087290      -7.31512038
C       -5.62711348      -4.35950338      -6.20145081
N       -4.89428084      -3.65771501      -5.31553466
H       -0.20734440      -2.24475938      -3.19074815
H       -1.63157143      -3.66838549      -4.61839512
H       -4.98191284      -2.93926485      -1.99738315
H       -3.55569903      -1.51526213      -0.57298215
H       -3.86702688      -6.03250584      -3.15498242
H       -5.80873343      -9.11381376      -4.48243559
H       -7.59604371     -10.14503014      -3.13571297
H       -9.21899684      -8.73423913      -1.91397512
H       -7.27228005      -5.19489804      -3.39247165
H       -7.28187995      -5.26021994      -8.70831794
H       -4.71422578      -2.67237072      -5.48236881
C       -1.79171681       1.79171681       1.79171681
C       -3.17540033       1.62295416       1.77416767
C       -3.98166161       2.42959943       2.58002622
C       -3.40471691       3.40429353       3.40386336
C       -2.01326187       3.56535822       3.41358565
C       -1.20630766       2.75926585       2.60694322
C       -4.25119069       4.25043529       4.25051316
C       -4.52971853       3.88864547       5.51718179
C       -5.39109259       4.77654943       6.40705180
H       -6.27553850       4.19525221       6.69961843
C       -4.62596625       5.22889953       7.64368756
C       -5.10000977       4.89908326       8.92445174
C       -4.40251869       5.29753349      10.06718505
C       -3.22232358       6.03013297       9.94745771
C       -2.74555758       6.36584212       8.68312819
Br      -1.14513984       7.35872265       8.51685624
C       -3.43661333       5.97374592       7.53664291
N       -5.92301300       5.92849349       5.66920299
N       -6.86245898       6.77394931       6.14319997
C       -7.00454676       7.59366033       5.09470826
N       -6.25429574       7.28773234       3.98782103
C       -5.60133213       6.21891130       4.36782424
N       -4.74864467       5.41416717       3.70471867
H       -3.63455829       0.86965791       1.13863574
H       -5.06150116       2.29546556       2.56138532
H       -1.55156173       4.32059808       4.04640102
H       -0.12783231       2.89451452       2.62159647
H       -4.14430226       2.96719689       5.94301599
H       -6.02432396       4.33642630       9.04423252
H       -4.78309115       5.04079301      11.05290266
H       -2.68754115       6.33742186      10.84224808
H       -3.05164783       6.25090670       6.55709522
H       -7.68316817       8.43654437       5.13070530
H       -4.53663088       5.60264546       2.72968898
C        1.79171681      -1.79171681       1.79171681
C        1.33276246      -2.19501415       3.04474555
C        2.13927175      -3.00081606       3.85119945
C        3.40408369      -3.40400799       3.40478212
C        3.85532009      -2.99287156       2.14401409
C        3.04925958      -2.18602501       1.33723213
C        4.25029528      -4.25071767       4.25112620
C        4.20301818      -5.59179802       4.14072959
C        5.09714280      -6.47418802       5.00336301
H        4.44455997      -7.11780200       5.60804718
C        6.02739503      -7.32361035       4.14754795
C        5.97214802      -8.72526105       4.22613569
C        6.81140938      -9.51701011       3.43881773
C        7.71690384      -8.92092487       2.56208555
C        7.78280957      -7.53265267       2.47906565
Br       9.00909724      -6.72077963       1.29084187
C        6.94983635      -6.73424567       3.26292014
N        5.85777663      -5.68410255       5.97883030
N        6.58013664      -6.20768055       6.99179107
C        7.02684570      -5.08961533       7.57645432
N        6.59390307      -3.91025693       7.02568911
C        5.83780945      -4.31381436       6.03644386
N        5.08259173      -3.62844734       5.15649144
H        0.35273537      -1.88818270       3.40193386
H        1.77745230      -3.31144067       4.82945907
H        4.83695839      -3.29603784       1.78556461
H        3.41072581      -1.87180499       0.36141251
H        3.54043514      -6.08093530       3.43314471
H        5.28059048      -9.21409640       4.91029589
H        6.76280432     -10.60074908       3.51323342
H        8.36722490      -9.54504533       1.95494086
H        7.02021907      -5.65069941       3.18873126
H        7.68115803      -5.13116441       8.43809541
H        5.03416052      -2.61605645       5.21874834
C       -0.00445707       0.01189536      -1.78238275
H       -0.66409135       0.67374010      -2.43557963
H        0.65740317      -0.63156657      -2.45157240
C       -0.90989263      -0.90692880      -0.91072765
C        0.90977584       0.90977584      -0.90977584
C       -0.00465871       1.77757030       0.00794375
H       -0.66225468       2.44313916      -0.64384735
H        0.64322798       2.43503045       0.67728295
C       -1.78241447       0.00034974      -0.00472694
H       -2.45427497      -0.65498947       0.64260836
H       -2.43311707       0.67328779      -0.65473579
C       -0.91132561       0.90220522       0.91563759
C       -0.01476271      -0.02253852       1.78660255
H       -0.67934791      -0.69751639       2.42135241
H        0.63392994       0.61504881       2.47327442
C        0.01484550      -1.77751727      -0.01636693
H        0.67870853      -2.42144646      -0.68295456
H       -0.62264859      -2.45592969       0.64226336
C        1.78714474       0.01002794       0.00389507
H        2.44202412       0.67113390       0.66197326
H        2.45385902      -0.65136977      -0.64189061
C        0.91606151      -0.90478549       0.90901405
