106
Properties=species:S:1:pos:R:3 pbc="F F F"
C        1.79203222       1.79203222      -1.79203222
C        1.47554712       3.13506374      -1.95728669
C        2.28582091       3.93170228      -2.76520804
Br       1.82027054       5.76331374      -2.95715105
C        3.40833445       3.38741215      -3.40991801
O        4.17137953       4.23503029      -4.17412213
C        3.73375434       2.02515340      -3.24685520
C        2.90738617       1.23877030      -2.42362740
C        4.89061294       1.39717658      -3.87731245
O        5.32409491       1.95427541      -5.04205602
N        6.42000991       1.26656795      -5.51801308
C        6.63924008       0.26923173      -4.64588773
C        5.68874672       0.31367262      -3.59088243
C        7.74908837      -0.71446569      -4.81625018
F        8.61629214      -0.67007806      -3.76861699
F        7.27764795      -1.99011024      -4.86563955
F        8.48456946      -0.52542280      -5.94165106
H        0.60648345       3.56036294      -1.46221925
H        4.86569853       3.73908839      -4.64274395
H        3.12242773       0.18181621      -2.27989286
H        5.61677518      -0.35012605      -2.74122564
C       -1.79203222      -1.79203222      -1.79203222
C       -1.22890408      -2.86211588      -2.47687760
C       -2.04175033      -3.66059993      -3.28038096
Br      -1.23160970      -5.11669915      -4.19242648
C       -3.41404741      -3.38895957      -3.40265763
O       -4.15656977      -4.22845288      -4.19550930
C       -3.99078276      -2.30392645      -2.71105374
C       -3.15559312      -1.51306087      -1.90112988
C       -5.41009344      -1.97155781      -2.78345073
O       -6.06163231      -2.33634269      -3.92245134
N       -7.38789001      -1.96726962      -3.84943131
C       -7.53694144      -1.35260045      -2.66481766
C       -6.30484456      -1.33067955      -1.95777766
C       -8.84514334      -0.79528723      -2.21044229
F       -9.26480023      -1.38951459      -1.06051625
F       -8.74968336       0.53463692      -1.93813082
F       -9.84834405      -0.93853788      -3.11391580
H       -0.16687509      -3.07495676      -2.38723380
H       -5.06852929      -3.89864354      -4.28035804
H       -3.56324297      -0.66272784      -1.35816598
H       -6.11483080      -0.91406986      -0.97897412
C       -1.79203222       1.79203222       1.79203222
C       -3.06950184       1.36474544       2.13365028
C       -3.86745787       2.17724582       2.93802753
Br      -5.60378243       1.55065759       3.38629530
C       -3.39195255       3.41600786       3.39770420
O       -4.22488412       4.15423218       4.20141565
C       -2.09706283       3.85528355       3.05341656
C       -1.30499347       3.01930541       2.24548499
C       -1.53558137       5.12452141       3.50499919
O       -2.42506763       6.11974866       3.77561006
N       -1.75826010       7.25098520       4.19534565
C       -0.45094542       6.94634196       4.15707216
C       -0.26530701       5.60700731       3.72098745
C        0.61094931       7.92403433       4.53778784
F        1.34693847       7.47237663       5.58939291
F        1.48898155       8.12457130       3.51758751
F        0.13426377       9.14564060       4.88942089
H       -3.44281965       0.40783158       1.77841441
H       -3.83408165       5.02624014       4.38720908
H       -0.30336995       3.32785740       1.95290944
H        0.66897602       5.07790864       3.59894215
C        1.79203222      -1.79203222       1.79203222
C        2.92942397      -1.25529293       2.38318066
C        3.72878547      -2.06848319       3.18546256
Br       5.26972749      -1.29160608       3.97940175
C        3.39493237      -3.41638911       3.39434314
O        4.21701722      -4.15208630       4.21142843
C        2.24272464      -3.96678794       2.79625036
C        1.44593803      -3.12927690       1.99456893
C        1.83058605      -5.35482397       2.97969195
O        2.81986808      -6.25120356       3.24935470
N        2.28741476      -7.51340631       3.40376987
C        0.96577074      -7.38528075       3.20330806
C        0.63380091      -6.03162590       2.92787496
C        0.02800088      -8.54432059       3.27855139
F       -0.90420958      -8.36552135       4.25351930
F       -0.66258183      -8.69952121       2.11623788
F        0.63776516      -9.73042291       3.53260966
H        3.19320978      -0.21323744       2.22261843
H        3.94567739      -5.08696941       4.21488408
H        0.55334194      -3.52035707       1.51043778
H       -0.34657056      -5.62058335       2.73386198
C       -0.00445707       0.01189536      -1.78238275
H       -0.66409135       0.67374010      -2.43557963
H        0.65740317      -0.63156657      -2.45157240
C       -0.90989263      -0.90692880      -0.91072765
C        0.90977584       0.90977584      -0.90977584
C       -0.00465871       1.77757030       0.00794375
H       -0.66225468       2.44313916      -0.64384735
H        0.64322798       2.43503045       0.67728295
C       -1.78241447       0.00034974      -0.00472694
H       -2.45427497      -0.65498947       0.64260836
H       -2.43311707       0.67328779      -0.65473579
C       -0.91132561       0.90220522       0.91563759
C       -0.01476271      -0.02253852       1.78660255
H       -0.67934791      -0.69751639       2.42135241
H        0.63392994       0.61504881       2.47327442
C        0.01484550      -1.77751727      -0.01636693
H        0.67870853      -2.42144646      -0.68295456
H       -0.62264859      -2.45592969       0.64226336
C        1.78714474       0.01002794       0.00389507
H        2.44202412       0.67113390       0.66197326
H        2.45385902      -0.65136977      -0.64189061
C        0.91606151      -0.90478549       0.90901405
