93
Properties=species:S:1:pos:R:3 pbc="F F F"
C        0.00000000       0.00000000       0.00000000
C        0.88212820       0.88212820      -0.88212820
C        0.56564310       2.22515972      -1.04738267
C        1.37591688       3.02179825      -1.85530401
C        2.49843042       2.47750813      -2.50001399
O        3.26147551       3.32512627      -3.26421810
C        2.82385031       1.11524938      -2.33695118
C        1.99748214       0.32886628      -1.51372338
C        3.98070891       0.48727256      -2.96740843
O        4.41419089       1.04437138      -4.13215200
N        5.51010589       0.35666392      -4.60810906
C        5.72933606      -0.64067229      -3.73598371
C        4.77884269      -0.59623140      -2.68097841
C        6.83918435      -1.62436972      -3.90634616
F        7.70638811      -1.57998208      -2.85871297
F        6.36774392      -2.90001427      -3.95573553
F        7.57466544      -1.43532682      -5.03174704
H       -0.30342057       2.65045891      -0.55231522
H        3.95579451       2.82918436      -3.73283993
H        2.21252370      -0.72808782      -1.36998883
H        4.70687116      -1.26003007      -1.83132162
C        1.02299950       4.41027855      -2.00080926
C        0.72743120       5.57313081      -2.12266991
Br       0.24952225       7.45336455      -2.31970827
C       -0.88212820      -0.88212820      -0.88212820
C       -0.46701848      -2.16922003      -1.20194698
C       -1.27825607      -2.96617821      -2.00858487
C       -2.50040567      -2.47754588      -2.49800098
O       -3.25618890      -3.32435236      -3.27027863
C       -2.92626072      -1.17205128      -2.17773887
C       -2.09670700      -0.38505844      -1.35830635
C       -4.18839993      -0.60496053      -2.64202944
O       -4.68099765      -1.09727309      -3.81244353
N       -5.87314564      -0.47859728      -4.12313596
C       -6.09412088       0.41337802      -3.14390461
C       -5.04690537       0.36818629      -2.18487062
C       -7.29668003       1.29758488      -3.12206564
F       -8.05259763       1.07935801      -2.01187937
F       -6.94512544       2.61187530      -3.09021504
F       -8.11706424       1.13794169      -4.19196310
H        0.47913544      -2.55104026      -0.82744875
H       -4.03269710      -2.85808676      -3.62703493
H       -2.38834365       0.62993143      -1.09601250
H       -4.95219717       0.95921757      -1.28518311
C       -0.82117062      -4.29657647      -2.31634023
C       -0.43836156      -5.41078502      -2.57408534
Br       0.18060831      -7.21236599      -2.99083739
C       -0.88212820       0.88212820       0.88212820
C       -2.12072290       0.41376283       1.30369976
C       -2.91908202       1.22653883       2.10739831
C       -2.48293769       2.50632653       2.48668832
O       -3.31266904       3.24335922       3.29479163
C       -1.22765723       2.98732269       2.06107095
C       -0.43420994       2.15068122       1.25518063
C       -0.70755467       4.30106054       2.42677469
O       -1.63038510       5.26641827       2.69391090
N       -1.00003394       6.44574533       3.02909960
C        0.31725380       6.19967674       2.94222453
C        0.54669763       4.85087862       2.55940871
C        1.34739574       7.24198176       3.22657477
F        2.15145482       6.87530737       4.26126644
F        2.16727934       7.43334487       2.15739965
F        0.82932192       8.45596559       3.54444199
H       -2.46362882      -0.57512363       1.01084837
H       -2.95599358       4.14021047       3.42161475
H        0.53707083       2.49031567       0.90117988
H        1.49869284       4.35978893       2.41706661
C       -4.19416635       0.70871209       2.53120888
C       -5.26204948       0.27503219       2.88615024
Br      -6.98872619      -0.42619152       3.46006040
C        0.88212820      -0.88212820       0.88212820
C        2.20158070      -0.51655486       1.12004993
C        2.99908026      -1.32862117       1.92531771
C        2.48098744      -2.50567387       2.48929122
O        3.31768312      -3.24597990       3.28715686
C        1.14330294      -2.88225393       2.25049400
C        0.35283315      -2.04737785       1.43986079
C        0.53724351      -4.08474150       2.81340488
O        1.38156292      -5.11617685       3.09297450
N        0.67673010      -6.17643922       3.62170956
C       -0.61009341      -5.79299703       3.64174385
C       -0.74324480      -4.47278122       3.13405327
C       -1.70191091      -6.67775435       4.14531734
F       -2.34231841      -6.11930974       5.20812767
F       -2.65267318      -6.88267372       3.19346465
F       -1.27714590      -7.90397615       4.54425540
H        2.60776470       0.39230399       0.68389286
H        2.88844740      -4.07917192       3.55019948
H       -0.68169681      -2.30910334       1.22701819
H       -1.65042118      -3.89413108       3.03445281
C        4.35987338      -0.91806293       2.15615102
C        5.49953762      -0.57422039       2.34947391
Br       7.34227830      -0.01825610       2.66206067
