197
Properties=species:S:1:pos:R:3 pbc="F F F"
C        0.00000000       0.00000000       0.00000000
O        6.91578852      11.57892492      -7.81288735
C        6.35580346      11.28630394      -6.76592507
C        5.19692740      10.32676706      -6.66057793
C        5.62895868       8.96578643      -6.13263105
C        4.42343522       8.04098127      -5.94637939
C        4.85532019       6.65331597      -5.48082968
C        3.67241343       5.77103549      -5.16000627
O        2.60499624       6.15880323      -4.70599196
O        3.99222028       4.46557828      -5.38756281
C        3.07843160       3.53054067      -4.80544875
C        3.39568186       3.34238335      -3.32426376
O        4.40643435       3.80997677      -2.79902362
C        2.48959182       2.49551105      -2.50067202
C        3.03838287       1.82610754      -1.39652117
C        2.23687030       1.01449893      -0.59066290
C        0.88149980       0.88149980      -0.88149980
C        0.32216152       1.55307247      -1.96853776
C        1.12541197       2.36081873      -2.78139671
O        6.63435517      11.82250783      -5.54687555
C        7.63705602      12.83782568      -5.55066713
C        9.06826077      12.30826939      -5.49392867
O        9.32738782      11.10638919      -5.46905007
C       10.18524565      13.30540025      -5.42694914
C        9.95444029      14.68730603      -5.35952007
C       11.02816291      15.57966237      -5.26224724
C       12.33419203      15.09563203      -5.23543004
Br      13.77880191      16.30569001      -5.09110870
C       12.57917488      13.72659191      -5.30981322
C       11.50640595      12.83378313      -5.40446020
H        4.74743391      10.22842238      -7.65572118
H        4.43043953      10.77889750      -6.01971473
H        6.15191084       9.08357805      -5.17552582
H        6.34624357       8.51353029      -6.82828273
H        3.86828518       7.95163120      -6.88872351
H        3.73356005       8.48583157      -5.21832782
H        5.46726352       6.72045864      -4.57460423
H        5.45444178       6.18110359      -6.26770001
H        3.23378616       2.57165805      -5.31037905
H        2.04572919       3.84657929      -4.97404193
H        4.09650036       1.93285397      -1.16095309
H        2.67858404       0.49902992       0.25841138
H       -0.73970279       1.46188454      -2.18562691
H        0.65332687       2.89227414      -3.60224558
H        7.46068761      13.43288770      -4.64868422
H        7.51577528      13.49254408      -6.42156898
H        8.95237573      15.10549105      -5.37332062
H       10.83419239      16.64841856      -5.20355291
H       13.59616593      13.34257995      -5.29073640
H       11.70936998      11.76494560      -5.45721371
O      -11.61842495      -7.52775464      -7.16142119
C      -11.29345174      -6.46654300      -6.64803772
C      -10.40087388      -6.34504953      -5.43834898
C       -8.98516171      -5.92913599      -5.81307845
C       -8.12479578      -5.72195656      -4.56404353
C       -6.68652359      -5.36979920      -4.93314305
C       -5.85849838      -5.02745842      -3.71749838
O       -6.28003175      -4.48316529      -2.70659440
O       -4.55344581      -5.35353429      -3.93838127
C       -3.63981589      -4.77141060      -3.00319453
C       -3.33799934      -3.32776120      -3.39656844
O       -3.70895430      -2.84131360      -4.46516684
C       -2.49620037      -2.50027132      -2.48930319
C       -1.72527073      -1.47613847      -3.05960238
C       -0.91342207      -0.67090690      -2.25770315
C       -0.88149980      -0.88149980      -0.88149980
C       -1.65412689      -1.88777734      -0.30186752
C       -2.46247340      -2.70032730      -1.10482671
O      -11.73236371      -5.23777043      -7.03360441
C      -12.68340801      -5.24469408      -8.09744674
C      -12.06582887      -5.31217855      -9.49245141
O      -10.85138417      -5.37664633      -9.67479658
C      -12.98730457      -5.25705323     -10.67323724
C      -14.37342765      -5.09158572     -10.53625302
C      -15.19120246      -5.00983165     -11.66903841
C      -14.62845570      -5.09632305     -12.94047536
Br     -15.73726851      -4.97236193     -14.46597018
C      -13.25473896      -5.26885206     -13.09198899
C      -12.43628705      -5.34807916     -11.96028306
H      -10.39404249      -7.31335306      -4.92418192
H      -10.85633071      -5.63009673      -4.74262431
H       -9.00937324      -5.00227067      -6.39937081
H       -8.53607394      -6.69550779      -6.45647486
H       -8.12991050      -6.63033042      -3.94839898
H       -8.56276800      -4.92552076      -3.94943067
H       -6.65818018      -4.50239595      -5.60175025
H       -6.23055884      -6.22064207      -5.45204447
H       -2.70775273      -5.34227378      -3.06579674
H       -4.02783336      -4.85386195      -1.98465510
H       -1.75254907      -1.30307277      -4.13468559
H       -0.31869392       0.11532529      -2.71583395
H       -1.64138460      -2.04125557       0.77483152
H       -3.07314521      -3.45552589      -0.61917550
H      -13.22880972      -4.29894843      -8.01450139
H      -13.39889318      -6.06486070      -7.96613446
H      -14.85139060      -5.01564847      -9.56414834
H      -16.26373363      -4.87434612     -11.54808411
H      -12.80957513      -5.33842939     -14.08147777
H      -11.36274972      -5.47823017     -12.09054940
O       -9.94652571       5.92608868      10.43498640
C       -9.12216259       5.04371611      10.24215376
C       -8.91897284       4.34340229       8.92189726
C       -7.68516032       4.85253374       8.18968210
C       -7.44759642       4.06367463       6.89952483
C       -6.25144045       4.61166892       6.12635647
C       -5.91839930       3.76175796       4.92329793
O       -6.06811416       2.55001278       4.85166449
O       -5.36126171       4.53526009       3.94883956
C       -4.70689799       3.79163989       2.91588315
C       -3.31126711       3.37681653       3.37424533
O       -2.80408204       3.79657504       4.41477765
C       -2.50152905       2.49324045       2.49100539
C       -1.10416282       2.60067831       2.55617046
C       -0.29413263       1.80012272       1.74777678
C       -0.88149980       0.88149980       0.88149980
C       -2.26924984       0.75636942       0.81815248
C       -3.08253760       1.56297960       1.62211020
O       -8.30912328       4.50424135      11.19037392
C       -8.50516099       5.01022459      12.51016325
C       -7.75811266       6.30956710      12.80277908
O       -7.06529052       6.87732862      11.96020794
C       -7.85248241       6.87922108      14.18589156
C       -8.55030872       6.23366831      15.21728936
C       -8.58162109       6.78535252      16.50309890
C       -7.91983204       7.98360913      16.76181294
Br      -7.95568494       8.71631559      18.50360009
C       -7.22965777       8.64017845      15.74574379
C       -7.19569239       8.08811375      14.46084314
H       -9.81833960       4.49880670       8.31443116
H       -8.85595762       3.26458912       9.10850502
H       -6.80377943       4.76970218       8.83753310
H       -7.80781205       5.91837689       7.96186765
H       -8.34088735       4.10428551       6.26346704
H       -7.28650548       3.00642613       7.14478783
H       -5.35914091       4.64191643       6.76126904
H       -6.47477226       5.63248882       5.79598431
H       -4.59698606       4.46171300       2.05712420
H       -5.31722312       2.93735909       2.61176819
H       -0.64012258       3.31273617       3.23744868
H        0.78682078       1.89899152       1.80703184
H       -2.72707949       0.02736646       0.15336270
H       -4.15773798       1.42055915       1.56954947
H       -8.11891373       4.23890268      13.18444313
H       -9.57415710       5.14011439      12.71561685
H       -9.07565379       5.29657332      15.05896029
H       -9.12073961       6.27027042      17.29515383
H       -6.71229456       9.57632058      15.94086715
H       -6.64893683       8.60760846      13.67498400
O        5.91777463     -10.35028339      10.03954277
C        5.02242850     -10.15595837       9.22964559
C        4.34532216      -8.82573794       9.01321229
C        4.84337508      -8.12993461       7.75406646
C        4.07641985      -6.82864708       7.50572894
C        4.61495310      -6.09194993       6.28256281
C        3.78317319      -4.87840559       5.94187641
O        2.57657315      -4.77825613       6.11496216
O        4.56468912      -3.93209192       5.34858032
C        3.82890004      -2.89742356       4.68809742
C        3.37549190      -3.37559564       3.31124144
O        3.76299294      -4.43493840       2.81750340
C        2.49346064      -2.49083576       2.50147849
C        2.57014433      -2.58699218       1.10387507
C        1.76955096      -1.77879690       0.29368426
C        0.88149980      -0.88149980       0.88149980
C        0.78689174      -0.78698645       2.26989356
C        1.59369685      -1.59080788       3.08312268
O        4.44658373     -11.10916546       8.44798937
C        4.92930290     -12.43498216       8.66126377
C        6.20636065     -12.77015406       7.89394411
O        6.77665892     -11.95413957       7.17202860
C        6.74928304     -14.16269720       8.00561480
C        6.09744579     -15.16571882       8.73810178
C        6.62308376     -16.46192137       8.78506738
C        7.80158892     -16.75932692       8.10433826
Br       8.49888095     -18.51502058       8.16169909
C        8.46428327     -15.77170133       7.37959540
C        7.93819051     -14.47645389       7.33000488
H        4.53206333      -8.20328916       9.89622498
H        3.26181063      -8.99089014       8.97635098
H        4.72872210      -8.79390578       6.88838682
H        5.91602364      -7.92209350       7.84993945
H        4.14887798      -6.17533159       8.38443033
H        3.01119526      -7.05490101       7.37162317
H        4.61336710      -6.74558942       5.40336986
H        5.64682466      -5.77857701       6.47784371
H        4.51404897      -2.05538047       4.54639381
H        2.99407477      -2.56292485       5.30935078
H        3.25811940      -3.29249109       0.63969694
H        1.84444053      -1.86235314      -0.78759109
H        0.08150901      -0.09774056       2.72855908
H        1.47501578      -1.51314623       4.15968459
H        4.13631902     -13.10071055       8.30522996
H        5.07737321     -12.62107363       9.73144150
H        5.17505558     -14.97695165       9.27918017
H        6.10325172     -17.23171227       9.35119988
H        9.38513144     -15.99706255       6.84728829
H        8.46214523     -13.71310604       6.75627803
