126
Properties=species:S:1:pos:R:3 pbc="F F F"
Cl       1.48459821       5.36773257      -3.54558019
C        2.08853486       3.84242808      -3.02975223
C        1.29679400       3.02554116      -2.22468882
C        1.79514668       1.79514668      -1.79514668
C        3.08009574       1.38013021      -2.16168441
O        3.58184286       0.18966597      -1.71564582
C        3.85506418       2.20165467      -2.98061891
C        3.36296724       3.43741410      -3.41798948
S        5.47071983       1.68636804      -3.49645666
O        5.29719536       0.41449977      -4.17652000
O        6.08852824       2.78859362      -4.21610190
C        6.47027194       1.41287945      -2.05864736
C        7.08990502       0.16922393      -1.88821565
C        7.89806437      -0.04472136      -0.77437447
Cl       8.65486700      -1.57330014      -0.55025610
C        8.10267273       0.96747291       0.16185211
C        7.48008900       2.20283734      -0.01665984
Br       7.77247834       3.56564265       1.26893308
C        6.65415411       2.43090295      -1.12251118
O        6.02570828       3.63333565      -1.28659339
H        0.30086947       3.35068837      -1.93511192
H        2.86004616      -0.30273905      -1.27913058
H        3.96991561       4.08214517      -4.05064014
H        6.94291239      -0.62711807      -2.61525722
H        8.74238842       0.78956812       1.02238216
H        6.36841015       4.25235394      -0.61312075
Cl      -5.57554529      -1.75034510      -3.07202059
C       -3.94230766      -2.21625894      -2.80214857
C       -3.12408885      -1.42281488      -2.00012025
C       -1.79514668      -1.79514668      -1.79514668
C       -1.27975045      -2.95173204      -2.39042787
O        0.03017653      -3.30071251      -2.21661866
C       -2.11497756      -3.74422316      -3.17813705
C       -3.45042788      -3.37960902      -3.38833391
S       -1.50380546      -5.23726234      -3.91247673
O       -1.00951409      -6.05808819      -2.82061285
O       -2.54155750      -5.77262322      -4.77904304
C       -0.13652409      -4.83809334      -4.96718132
C        1.09106009      -5.47827814      -4.76012654
C        2.16286458      -5.18942370      -5.60115837
Cl       3.67864909      -5.96258740      -5.34788465
C        2.02119808      -4.28081796      -6.64867364
C        0.79411833      -3.64763993      -6.84606459
Br       0.62349980      -2.41548384      -8.27720388
C       -0.28935470      -3.91558355      -6.00262998
O       -1.48543059      -3.27900876      -6.18119797
H       -3.52295479      -0.52116045      -1.54255452
H        0.41509670      -2.71636536      -1.53516904
H       -4.10046985      -3.99334886      -4.00888220
H        1.21263443      -6.19416537      -3.94952060
H        2.86365835      -4.07071293      -7.30251980
H       -1.44223247      -2.77488106      -7.01677130
Cl      -1.24840022       4.28111690       4.86839385
C       -1.98609536       3.34875587       3.62586395
C       -1.19589381       2.53889893       2.81223124
C       -1.79514668       1.79514668       1.79514668
C       -3.17686661       1.86033329       1.58471046
O       -3.76116046       1.15723852       0.56875567
C       -3.95691074       2.66346176       2.41696527
C       -3.36480775       3.41225800       3.44130507
S       -5.71499013       2.73578222       2.20277218
O       -6.19818100       1.37078903       2.31924511
O       -6.23957275       3.74573898       3.10791205
C       -6.06854640       3.30964819       0.56360415
C       -6.88318605       2.53195267      -0.26779413
C       -7.18702475       2.98860055      -1.54790782
Cl      -8.17812973       2.03484863      -2.58115538
C       -6.69801786       4.21233937      -2.00206371
C       -5.88644613       4.97937287      -1.16623282
Br      -5.23243664       6.64093077      -1.80417949
C       -5.55995850       4.52991125       0.11769849
O       -4.74655283       5.26997110       0.92911340
H       -0.12174252       2.49292552       2.97200172
H       -3.09256401       0.55505408       0.18881961
H       -3.97177768       4.04484153       4.08608171
H       -7.27613543       1.57757786       0.07733825
H       -6.94959892       4.56048713      -3.00051168
H       -4.59493664       6.13583874       0.50310945
Cl       3.64572286      -1.43954992       5.31263820
C        3.07497672      -2.06845811       3.81728034
C        2.26926480      -1.27700958       3.00074959
C        1.79514668      -1.79514668       1.79514668
C        2.11785454      -3.09939482       1.40466100
O        1.62820837      -3.61947556       0.23947073
C        2.93797685      -3.87432659       2.22503433
C        3.41989906      -3.36250904       3.43596271
S        3.39883866      -5.51551857       1.73918730
O        4.04961926      -5.39229117       0.44630470
O        4.13108008      -6.12364809       2.83849560
C        1.92937286      -6.48378356       1.52864233
C        1.71075600      -7.13023196       0.30635663
C        0.57147504      -7.91418425       0.14205819
Cl       0.28826402      -8.70356607      -1.36000712
C       -0.34287860      -8.06839354       1.18277858
C       -0.11632847      -7.41941893       2.39649573
Br      -1.37288597      -7.64328496       3.79878893
C        1.01578998      -6.61713433       2.57464393
O        1.22720840      -5.96276328       3.75566565
H        2.01375374      -0.26589486       3.30702115
H        1.19749996      -2.89929286      -0.26035512
H        4.05352034      -3.96916677       4.08001380
H        2.42023921      -7.02263216      -0.51181983
H       -1.22378372      -8.68971854       1.04363956
H        0.56163671      -6.27185989       4.40038824
C       -0.00445707       0.01189536      -1.78238275
H       -0.66409135       0.67374010      -2.43557963
H        0.65740317      -0.63156657      -2.45157240
C       -0.90989263      -0.90692880      -0.91072765
C        0.90977584       0.90977584      -0.90977584
C       -0.00465871       1.77757030       0.00794375
H       -0.66225468       2.44313916      -0.64384735
H        0.64322798       2.43503045       0.67728295
C       -1.78241447       0.00034974      -0.00472694
H       -2.45427497      -0.65498947       0.64260836
H       -2.43311707       0.67328779      -0.65473579
C       -0.91132561       0.90220522       0.91563759
C       -0.01476271      -0.02253852       1.78660255
H       -0.67934791      -0.69751639       2.42135241
H        0.63392994       0.61504881       2.47327442
C        0.01484550      -1.77751727      -0.01636693
H        0.67870853      -2.42144646      -0.68295456
H       -0.62264859      -2.45592969       0.64226336
C        1.78714474       0.01002794       0.00389507
H        2.44202412       0.67113390       0.66197326
H        2.45385902      -0.65136977      -0.64189061
C        0.91606151      -0.90478549       0.90901405
