97
Properties=species:S:1:pos:R:3 pbc="F F F"
C        0.00000000       0.00000000       0.00000000
Cl       4.38110810       0.54324267      -7.75523895
C        2.81965508       0.51547954      -7.03177362
C        2.44440929       1.54222901      -6.16554799
C        1.17958379       1.52591719      -5.56674858
S        0.72682803       2.86194457      -4.46674236
C        1.27114613       2.17907659      -2.90534170
C        2.55390193       2.49480784      -2.44429509
C        2.99509260       1.99813425      -1.21820380
Cl       4.58025722       2.38237144      -0.66769588
C        2.16884290       1.19688807      -0.43462359
C        0.88597424       0.88597424      -0.88597424
C        0.43642114       1.36968638      -2.11949855
O       -0.82422691       1.04013041      -2.54502330
C        0.29606423       0.47720101      -5.85903237
O       -0.94580878       0.47237429      -5.27223111
C        0.68330563      -0.54656171      -6.73088485
Br      -0.49605471      -1.97500680      -7.13259929
C        1.94706023      -0.53173041      -7.31851393
H        3.13906355       2.35350985      -5.96041954
H        3.21057587       3.12959119      -3.03435153
H        2.52359983       0.81960363       0.52091209
H       -0.90056095       1.28663096      -3.49091412
H       -1.42207668      -0.31860254      -5.59251686
H        2.25318424      -1.32500746      -7.99575574
Cl      -5.57138353      -6.96946105      -0.13874514
C       -5.39510165      -5.33155454       0.35974795
C       -5.21623213      -4.33568821      -0.60026594
C       -5.06527606      -3.00155144      -0.20542205
S       -4.84535593      -1.74783536      -1.46232368
C       -3.05981392      -1.72452625      -1.57122426
C       -2.43472382      -2.52297228      -2.53530876
C       -1.04597174      -2.50494472      -2.66051419
Cl      -0.28728699      -3.50176357      -3.84127398
C       -0.26699317      -1.69015778      -1.84320362
C       -0.88597424      -0.88597424      -0.88597424
C       -2.27779257      -0.90389001      -0.74392350
O       -2.86019834      -0.11269556       0.21196710
C       -5.11011564      -2.68096525       1.15878327
O       -4.96776455      -1.36829836       1.53726628
C       -5.29161323      -3.68864254       2.11262700
Br      -5.34878829      -3.27403987       3.96129039
C       -5.43272321      -5.01740204       1.71628150
H       -5.19617092      -4.60238973      -1.65443228
H       -3.02510815      -3.15679078      -3.19261966
H        0.81417914      -1.68257199      -1.95389852
H       -3.79533161      -0.39085130       0.30919878
H       -5.03156754      -1.33204833       2.51177823
H       -5.57303034      -5.80411032       2.45320813
Cl      -1.84155728       8.37791341       2.46011903
C       -1.95278033       7.24432332       1.16980459
C       -2.72837917       6.09592120       1.32788593
C       -2.82035261       5.16444718       0.28744976
S       -3.82967759       3.70595224       0.51988513
C       -2.60378450       2.57859105       1.17318887
C       -2.46618942       2.46580138       2.56101405
C       -1.53706134       1.57569963       3.09866968
Cl      -1.36732396       1.45547751       4.80752307
C       -0.74680877       0.78329326       2.27025253
C       -0.88597424       0.88597424       0.88597424
C       -1.80723260       1.78338821       0.33498526
O       -1.91631448       1.87306780      -1.02845549
C       -2.13759222       5.40750667      -0.91280128
O       -2.23860085       4.49144322      -1.93124744
C       -1.36372854       6.56405143      -1.06015119
Br      -0.42936354       6.90569526      -2.67352102
C       -1.26726613       7.48519318      -0.01861556
H       -3.26033481       5.93068494       2.26197318
H       -3.08254419       3.06574371       3.22623068
H       -0.02929486       0.09066851       2.70232800
H       -2.44656016       2.67023086      -1.23980690
H       -1.71050310       4.82443717      -2.68310263
H       -0.66675345       8.38473395      -0.12755488
Cl       8.39205892      -2.05762930       2.22990150
C        7.17206973      -0.84911001       2.34572850
C        5.99111113      -1.12741027       3.03366489
C        4.98989943      -0.15414389       3.12820622
S        3.49063504      -0.54071729       4.02416263
C        2.48541091      -1.18046223       2.68969128
C        2.47198592      -2.56065789       2.46036105
C        1.67736850      -3.09004863       1.44401352
Cl       1.67944031      -4.78834536       1.16253887
C        0.88248226      -2.26191620       0.65595610
C        0.88597424      -0.88597424       0.88597424
C        1.68748679      -0.34234294       1.89577634
O        1.68122923       1.01401088       2.09370846
C        5.19550705       1.10069213       2.53748269
O        4.21052508       2.05241057       2.64068211
C        6.38516920       1.36868913       1.85114870
Br       6.67742673       3.05742769       1.04153874
C        7.37643643       0.39398808       1.75139539
H        5.85488885      -2.10255312       3.49555096
H        3.07518001      -3.22668317       3.07265541
H        0.26471604      -2.68786276      -0.13028743
H        2.42896754       1.23872593       2.68674253
H        4.52547917       2.85606632       2.18242479
H        8.30202008       0.59669702       1.21860947
