118
Properties=species:S:1:pos:R:3 pbc="F F F"
Cl       5.29101212       1.45314669      -8.66514298
C        3.72955911       1.42538356      -7.94167765
C        3.35431331       2.45213303      -7.07545202
C        2.08948781       2.43582121      -6.47665260
S        1.63673205       3.77184859      -5.37664639
C        2.18105016       3.08898061      -3.81524572
C        3.46380596       3.40471186      -3.35419911
C        3.90499663       2.90803827      -2.12810782
Cl       5.49016125       3.29227547      -1.57759990
C        3.07874692       2.10679209      -1.34452762
C        1.79587826       1.79587826      -1.79587826
C        1.34632516       2.27959041      -3.02940257
O        0.08567711       1.95003443      -3.45492733
C        1.20596826       1.38710504      -6.76893639
O       -0.03590475       1.38227831      -6.18213514
C        1.59320965       0.36334231      -7.64078888
Br       0.41384931      -1.06510278      -8.04250331
C        2.85696425       0.37817361      -8.22841795
H        4.04896757       3.26341387      -6.87032356
H        4.12047989       4.03949522      -3.94425555
H        3.43350385       1.72950765      -0.38899194
H        0.00934307       2.19653499      -4.40081814
H       -0.51217266       0.59130149      -6.50242089
H        3.16308827      -0.41510343      -8.90565976
Cl      -6.28491936      -8.03089117      -1.09349127
C       -6.14039420      -6.40322771      -0.55299840
C       -6.01741314      -5.37602190      -1.48846332
C       -5.89265389      -4.04970078      -1.05960695
S       -5.74448574      -2.75532508      -2.28541621
C       -3.96419950      -2.67734708      -2.44372992
C       -3.34505630      -3.42997800      -3.44768263
C       -1.96156036      -3.36829195      -3.61129042
Cl      -1.20962167      -4.30918277      -4.84123217
C       -1.18247969      -2.55461130      -2.79297564
C       -1.79587826      -1.79587826      -1.79587826
C       -3.18195404      -1.85801464      -1.61534946
O       -3.75848076      -1.11116497      -0.62099314
C       -5.90702083      -3.76900742       0.31401856
O       -5.79072930      -2.46392777       0.72614837
C       -6.03247433      -4.80791719       1.24305068
Br      -6.04780094      -4.44725428       3.10380538
C       -6.14759003      -6.12853852       0.81257273
H       -6.02035408      -5.61230327      -2.55004765
H       -3.93615522      -4.06188047      -4.10619497
H       -0.10560040      -2.51265974      -2.93374330
H       -4.68222574      -1.41886551      -0.50560495
H       -5.82732178      -2.45693687       1.70270894
H       -6.24436803      -6.93937237       1.53009580
Cl      -1.99139572       9.07595417       4.34195190
C       -2.05404593       8.15028358       2.89229080
C       -2.98779796       7.12108417       2.77301622
C       -3.04283190       6.35795867       1.60117105
S       -4.25729648       5.05037900       1.47755155
C       -3.30153774       3.67574198       2.10799678
C       -3.39042414       3.36333535       3.46895745
C       -2.67709089       2.28098542       3.98306641
Cl      -2.78379494       1.91454985       5.66169182
C       -1.88137210       1.49360403       3.15509050
C       -1.79587826       1.79587826       1.79587826
C       -2.49853723       2.88594904       1.27083187
O       -2.38839843       3.16823227      -0.06599183
C       -2.16128936       6.64999632       0.55072401
O       -2.22647719       5.90046245      -0.59843094
C       -1.22979087       7.68603550       0.68151447
Br      -0.02660901       8.09071578      -0.72607495
C       -1.17187230       8.43821647       1.85346704
H       -3.67131962       6.91734176       3.59404363
H       -4.01627960       3.95722877       4.13072229
H       -1.33373079       0.65041939       3.56785327
H       -2.77212208       4.05684466      -0.22227053
H       -1.55228104       6.24539080      -1.21612212
H       -0.44957959       9.24349896       1.96056605
Cl       8.84574260      -4.92552997       1.63802922
C        8.04449851      -3.40231703       1.64980477
C        7.11039672      -3.12401366       2.64748798
C        6.44832222      -1.89111399       2.66252541
S        5.26176730      -1.56307204       3.96038769
C        3.76628244      -2.14756507       3.17142899
C        3.35739428      -3.46614529       3.39917736
C        2.18182724      -3.94089974       2.81841575
Cl       1.69601707      -5.56907858       3.09494097
C        1.39690462      -3.11384301       2.01931900
C        1.79587826      -1.79587826       1.79587826
C        2.97906460      -1.31174390       2.36450964
O        3.35435061      -0.01624920       2.12003906
C        6.74573659      -0.94104316       1.67522994
O        6.09625384       0.26895874       1.70121360
C        7.68592582      -1.23118884       0.68022619
Br       8.09586811       0.03905944      -0.66555883
C        8.33687607      -2.46349439       0.66318536
H        6.90182486      -3.86908836       3.41179178
H        3.94870105      -4.12496866       4.03056095
H        0.48082803      -3.49523726       1.57593815
H        4.28170002       0.09374529       2.41874147
H        6.43001561       0.80083253       0.95236664
H        9.06737989      -2.69428428      -0.10801957
C       -0.00445707       0.01189536      -1.78238275
H       -0.66409135       0.67374010      -2.43557963
H        0.65740317      -0.63156657      -2.45157240
C       -0.90989263      -0.90692880      -0.91072765
C        0.90977584       0.90977584      -0.90977584
C       -0.00465871       1.77757030       0.00794375
H       -0.66225468       2.44313916      -0.64384735
H        0.64322798       2.43503045       0.67728295
C       -1.78241447       0.00034974      -0.00472694
H       -2.45427497      -0.65498947       0.64260836
H       -2.43311707       0.67328779      -0.65473579
C       -0.91132561       0.90220522       0.91563759
C       -0.01476271      -0.02253852       1.78660255
H       -0.67934791      -0.69751639       2.42135241
H        0.63392994       0.61504881       2.47327442
C        0.01484550      -1.77751727      -0.01636693
H        0.67870853      -2.42144646      -0.68295456
H       -0.62264859      -2.45592969       0.64226336
C        1.78714474       0.01002794       0.00389507
H        2.44202412       0.67113390       0.66197326
H        2.45385902      -0.65136977      -0.64189061
C        0.91606151      -0.90478549       0.90901405
