189
Properties=species:S:1:pos:R:3 pbc="F F F"
C        0.00000000       0.00000000       0.00000000
C        0.65548841       1.34755116     -10.92339630
O        1.13924895       1.81651119      -9.67108441
C        0.76443990       1.10019564      -8.55543785
C       -0.22826109       0.11325526      -8.54295887
C       -0.55555715      -0.54075340      -7.35476585
C        0.09965396      -0.20790401      -6.17591132
C        1.08613367       0.77937301      -6.18046414
C        1.43035384       1.45949122      -7.35763233
N        2.50442243       2.38076351      -7.42686923
C        2.79454793       3.20010032      -6.24366582
C        3.91060536       2.53425982      -5.40925587
H        3.65227481       1.49879988      -5.17179006
O        5.10105931       2.46231051      -6.21347626
C        4.22831317       3.27956102      -4.11108013
N        3.06739669       3.46957501      -3.25526067
C        2.48314586       2.47568534      -2.49054544
C        2.85726976       1.13872209      -2.26402150
C        2.03571308       0.35212881      -1.45007821
C        0.88277910       0.88277910      -0.88277910
C        0.51570648       2.21163471      -1.10588612
C        1.33124992       3.02413127      -1.92286747
C        1.24677852       4.38744241      -2.34353890
C        0.31588449       5.42019878      -2.10004485
C        0.52202931       6.67497190      -2.67745992
Br      -0.72725133       8.05993666      -2.35852317
C        1.62773111       6.92124831      -3.48280309
C        2.56092127       5.91225140      -3.73794325
C        2.35011974       4.64873850      -3.15833590
H        1.07692837       1.98664765     -11.70524300
H       -0.43464765       1.42911353     -10.98647994
H        0.98883746       0.32183178     -11.11317982
H       -0.76966876      -0.16810645      -9.43890920
H       -1.32259835      -1.31072903      -7.34938239
H       -0.14808345      -0.71818203      -5.24836929
H        1.56986564       0.99658763      -5.23600419
H        2.36590264       2.93862964      -8.27502840
H        1.88185454       3.39339447      -5.67214620
H        3.16105435       4.16955504      -6.60434979
H        4.79148618       2.08006078      -7.06220097
H        4.68424290       4.25209000      -4.32216602
H        4.98083011       2.73014085      -3.53198018
H        3.75634544       0.71532634      -2.70166322
H        2.31188131      -0.68362333      -1.26458368
H       -0.38492418       2.62170713      -0.65914239
H       -0.55003533       5.23327501      -1.47217790
H        1.77743206       7.90321807      -3.92562264
H        3.41822085       6.11819770      -4.37122515
C       -4.54868462      -9.92395436       1.54620310
O       -4.46808051      -8.81652335       0.65775931
C       -3.54454731      -7.84174253       0.96621644
C       -2.86811352      -7.74807301       2.18823348
C       -1.96759345      -6.70703520       2.41617334
C       -1.74483901      -5.75356761       1.43074534
C       -2.42053447      -5.83790341       0.21246706
C       -3.33754919      -6.86802664      -0.04190157
N       -3.95248248      -7.05513046      -1.30444223
C       -4.26130471      -5.86712732      -2.10988204
C       -3.12180078      -5.61175385      -3.12056642
H       -2.15625187      -5.55584162      -2.61077126
O       -3.03013256      -6.74511426      -4.00159926
C       -3.31963795      -4.34435070      -3.95496566
N       -3.49642034      -3.14512386      -3.15068817
C       -2.47864047      -2.49170204      -2.47903413
C       -1.09047743      -2.71758363      -2.45195229
C       -0.30345198      -1.89477565      -1.63969246
C       -0.88277910      -0.88277910      -0.88277910
C       -2.26074804      -0.65790775      -0.91457153
C       -3.07394892      -1.47549046      -1.72880928
C       -4.47960515      -1.51362375      -1.98453093
C       -5.57051395      -0.75110254      -1.51451162
C       -6.85766932      -1.05100597      -1.96578583
Br      -8.32324534      -0.03512474      -1.33283841
C       -7.07865098      -2.08347009      -2.86966144
C       -6.01271988      -2.85181470      -3.34658134
C       -4.71793911      -2.55048110      -2.88877393
H       -5.28439367     -10.62512346       1.14069812
H       -4.90067976      -9.61682126       2.53655520
H       -3.58810553     -10.44590867       1.61016514
H       -3.02157519      -8.46563994       2.98608113
H       -1.43949296      -6.64031206       3.36375003
H       -1.04027483      -4.94329987       1.60147089
H       -2.20636070      -5.07260635      -0.52349041
H       -4.76665712      -7.65871867      -1.15418490
H       -4.47276148      -5.00702147      -1.46761225
H       -5.17980638      -6.08610582      -2.66904698
H       -3.02127218      -7.51664149      -3.39583426
H       -4.17241679      -4.45355947      -4.63252266
H       -2.45379546      -4.18070793      -4.60844776
H       -0.62839755      -3.50465442      -3.04028303
H        0.77191619      -2.05624081      -1.60851703
H       -2.70806875       0.13487535      -0.32273195
H       -5.40381312       0.05626442      -0.80786889
H       -8.08583031      -2.30616206      -3.21428041
H       -6.20064462      -3.65693518      -4.05006390
C      -10.51734038      -0.80167092       3.21076641
O       -9.31791451      -0.05278934       3.36171938
C       -8.27654827      -0.37594500       2.51947013
C       -8.23460928      -1.51881494       1.71215871
C       -7.12191368      -1.77322165       0.90976328
C       -6.04625103      -0.89418572       0.91559596
C       -6.07930183       0.24392885       1.72274015
C       -7.18037015       0.52125638       2.54585087
N       -7.30246858       1.72232065       3.28726594
C       -6.08056436       2.33681712       3.82093259
C       -5.57791183       3.42694256       2.84926666
H       -5.45973095       3.02284838       1.84028541
O       -6.58814969       4.44542755       2.74326885
C       -4.26086772       4.07237499       3.28571161
N       -3.18773804       3.11218303       3.49231129
C       -2.49148074       2.48063583       2.47726006
C       -2.54644552       2.63357025       1.07999758
C       -1.72688627       1.81725215       0.29378167
C       -0.88277910       0.88277910       0.88277910
C       -0.82704120       0.73573044       2.27045567
C       -1.64445070       1.55049317       3.08330478
C       -1.82703899       1.65364891       4.49707193
C       -1.26056291       0.97688684       5.59867837
C       -1.66537719       1.31809751       6.89098642
Br      -0.91291986       0.40847185       8.36981679
C       -2.61206461       2.31249791       7.10721999
C       -3.18660296       2.99405054       6.03046243
C       -2.78015449       2.64705400       4.72998565
H      -11.25510266      -0.39590982       3.90962617
H      -10.36604427      -1.85480375       3.46970529
H      -10.92098134      -0.69545968       2.19832739
H       -9.04854474      -2.23427487       1.68686412
H       -7.09478231      -2.65830728       0.27957997
H       -5.17902774      -1.08520142       0.28827749
H       -5.21758796       0.89911194       1.68575756
H       -8.01443202       1.55931346       4.00581520
H       -5.32847199       1.57435388       4.04456934
H       -6.34839707       2.81481738       4.77174473
H       -7.41432492       3.94382518       2.57559784
H       -4.39939095       4.66083549       4.19827247
H       -3.92144022       4.79152227       2.52998865
H       -3.20156377       3.36126067       0.61051057
H       -1.75724715       1.92400574      -0.78841124
H       -0.16485651       0.00549078       2.72557807
H       -0.52100387       0.19878557       5.43562814
H       -2.91794057       2.56963606       8.11869614
H       -3.92690322       3.76643661       6.21430387
C        6.73473336      -8.43630641      -2.24460389
O        6.27028057      -7.57191963      -1.21535565
C        5.22963526      -6.72867444      -1.53823631
C        4.77029189      -6.49799265      -2.84033150
C        3.72391116      -5.60398554      -3.06944139
C        3.13836509      -4.93273922      -2.00344303
C        3.59567771      -5.15378046      -0.70348734
C        4.65106092      -6.04000357      -0.44358709
N        5.06391377      -6.37975152       0.86838988
C        4.97151752      -5.35304221       1.91375434
C        3.64664445      -5.51724535       2.69023125
H        2.79397912      -5.52292882       2.00595681
O        3.64495955      -6.80918363       3.32270291
C        3.42572904      -4.43942664       3.75379864
N        3.48216147      -3.08557557       3.22449533
C        2.48132448      -2.49129059       2.47676157
C        1.19797951      -2.94285647       2.11917738
C        0.40777641      -2.11608605       1.31405763
C        0.88277910      -0.88277910       0.88277910
C        2.15571449      -0.43493975       1.24257307
C        2.96965939      -1.25257507       2.05601419
C        4.28594327      -1.10018122       2.59163534
C        5.25613880      -0.07892929       2.50106003
C        6.47976117      -0.24008244       3.15461750
Br       7.78522123       1.12402846       3.03001573
C        6.75368484      -1.38571574       3.89238193
C        5.80755580      -2.40970726       3.99385286
C        4.57742457      -2.24711956       3.33265001
H        7.52023980      -9.06920927      -1.82063006
H        7.17987214      -7.87129124      -3.07021756
H        5.93154447      -9.09106083      -2.59875625
H        5.20704124      -6.99376756      -3.69967480
H        3.36552773      -5.43141543      -4.08088815
H        2.31925667      -4.23895172      -2.17610458
H        3.10115518      -4.60953581       0.09176647
H        6.00041764      -6.78810600       0.79103704
H        5.10476167      -4.35361737       1.48901617
H        5.80474086      -5.52278685       2.60743146
H        3.90369937      -7.42540489       2.60464367
H        4.15212514      -4.53986159       4.56651219
H        2.44522795      -4.56932455       4.22839865
H        0.81753354      -3.90396539       2.45183608
H       -0.58747836      -2.45074548       1.02957454
H        2.52136286       0.52985347       0.90441596
H        5.04777788       0.81795266       1.92559236
H        7.71009539      -1.49850100       4.39767639
H        6.03641016      -3.30009342       4.57114012
