197
Properties=species:S:1:pos:R:3 pbc="F F F"
C        0.00000000       0.00000000       0.00000000
C        0.65548841       1.34755116     -10.92339630
O        1.13924895       1.81651119      -9.67108441
C        0.76443990       1.10019564      -8.55543785
C       -0.22826109       0.11325526      -8.54295887
C       -0.55555715      -0.54075340      -7.35476585
C        0.09965396      -0.20790401      -6.17591132
C        1.08613367       0.77937301      -6.18046414
C        1.43035384       1.45949122      -7.35763233
N        2.50442243       2.38076351      -7.42686923
C        2.79454793       3.20010032      -6.24366582
C        3.91060536       2.53425982      -5.40925587
H        3.65227481       1.49879988      -5.17179006
O        5.10105931       2.46231051      -6.21347626
C        4.22831317       3.27956102      -4.11108013
N        3.06739669       3.46957501      -3.25526067
C        2.48314586       2.47568534      -2.49054544
C        2.85726976       1.13872209      -2.26402150
C        2.03571308       0.35212881      -1.45007821
C        0.88277910       0.88277910      -0.88277910
C        0.51570648       2.21163471      -1.10588612
C        1.33124992       3.02413127      -1.92286747
C        1.24677852       4.38744241      -2.34353890
C        0.31588449       5.42019878      -2.10004485
C        0.52202931       6.67497190      -2.67745992
C        1.62773111       6.92124831      -3.48280309
C        2.56092127       5.91225140      -3.73794325
C        2.35011974       4.64873850      -3.15833590
H        1.07692837       1.98664765     -11.70524300
H       -0.43464765       1.42911353     -10.98647994
H        0.98883746       0.32183178     -11.11317982
H       -0.76966876      -0.16810645      -9.43890920
H       -1.32259835      -1.31072903      -7.34938239
H       -0.14808345      -0.71818203      -5.24836929
H        1.56986564       0.99658763      -5.23600419
H        2.36590264       2.93862964      -8.27502840
H        1.88185454       3.39339447      -5.67214620
H        3.16105435       4.16955504      -6.60434979
H        4.79148618       2.08006078      -7.06220097
H        4.68424290       4.25209000      -4.32216602
H        4.98083011       2.73014085      -3.53198018
H        3.75634544       0.71532634      -2.70166322
H        2.31188131      -0.68362333      -1.26458368
H       -0.38492418       2.62170713      -0.65914239
H       -0.55003533       5.23327501      -1.47217790
H        1.77743206       7.90321807      -3.92562264
H        3.41822085       6.11819770      -4.37122515
C       -0.42867973       7.72893725      -2.43474740
C       -1.22489855       8.61163323      -2.23147567
Br      -2.51231703      10.03887798      -1.90280248
C       -7.49351784       2.31618626      -7.74910430
O       -6.78710007       1.26411148      -7.10385596
C       -6.01597233       1.61241794      -6.01651901
C       -5.69613445       2.92767383      -5.65949242
C       -4.88494713       3.17897145      -4.55247962
C       -4.38489373       2.12103832      -3.80380586
C       -4.69515389       0.80720996      -4.15802690
C       -5.50096801       0.52376581      -5.27027519
N       -5.93417318      -0.78629116      -5.59159083
C       -5.03391728      -1.90786766      -5.29652913
C       -5.40038706      -2.52478631      -3.92894769
H       -5.41508758      -1.75868612      -3.14909105
O       -6.74515102      -3.03023638      -4.00145868
C       -4.46340304      -3.65590633      -3.49964495
N       -3.06285619      -3.26405184      -3.46532434
C       -2.49072294      -2.47587494      -2.48277877
C       -3.02089964      -1.94720635      -1.29190736
C       -2.19294640      -1.14564788      -0.49932581
C       -0.88277910      -0.88277910      -0.88277910
C       -0.35749307      -1.41221407      -2.06352017
C       -1.17504051      -2.22531532      -2.87789282
C       -0.95641214      -2.90573736      -4.11561033
C        0.15488069      -3.01152594      -4.97948287
C        0.04219147      -3.76988686      -6.14676573
C       -1.14280490      -4.42170232      -6.46727529
C       -2.25568627      -4.32892988      -5.62649977
C       -2.14139589      -3.56246060      -4.45333765
H       -8.09061314       1.87443806      -8.55264393
H       -6.80725281       3.03506532      -8.20875833
H       -8.18040356       2.81090960      -7.05435510
H       -6.05764132       3.77991889      -6.22341157
H       -4.64320451       4.20142190      -4.27427239
H       -3.75656856       2.31169802      -2.93723327
H       -4.28443522       0.01986205      -3.53788430
H       -6.24308650      -0.76814410      -6.56833009
H       -3.98795796      -1.59437344      -5.36506381
H       -5.19572393      -2.66488502      -6.07435022
H       -7.25713549      -2.28828650      -4.38832594
H       -4.57883305      -4.52625733      -4.15340854
H       -4.73259112      -4.01261290      -2.49774713
H       -4.04251143      -2.14759743      -0.98322615
H       -2.58798131      -0.73000735       0.42514700
H        0.66695194      -1.20519588      -2.35768140
H        1.08293011      -2.50395240      -4.73439529
H       -1.21726636      -5.01019828      -7.37880814
H       -3.17557630      -4.84102607      -5.89104133
C        1.17277560      -3.87544297      -7.03233755
C        2.11963980      -3.96384621      -7.77400395
Br       3.65063913      -4.10678677      -8.97321579
C      -10.30530945      -1.13193460       3.75306103
O       -9.13807333      -0.32168896       3.81046019
C       -8.12244573      -0.63677355       2.93440122
C       -8.06242470      -1.81443120       2.17995955
C       -6.97712747      -2.05566832       1.33699616
C       -5.94645453      -1.12838120       1.24958794
C       -5.99738363       0.04493654       2.00365066
C       -7.07123436       0.31059167       2.86565136
N       -7.21712856       1.53937851       3.55554810
C       -6.00314302       2.23523132       3.99993973
C       -5.59986489       3.29889729       2.95535887
H       -5.50913036       2.85205708       1.96167730
O       -6.66234944       4.26298733       2.85150932
C       -4.29697782       4.02529874       3.29667776
N       -3.16991118       3.12719134       3.49512985
C       -2.49161294       2.47996768       2.47779602
C       -2.61880068       2.56193621       1.07927646
C       -1.79785065       1.74723504       0.29283440
C       -0.88277910       0.88277910       0.88277910
C       -0.75555194       0.80625192       2.27142345
C       -1.57304431       1.62079850       3.08440583
C       -1.69457952       1.78410995       4.49907036
C       -1.04525485       1.18885686       5.60201641
C       -1.40575000       1.57344509       6.89526602
C       -2.38868854       2.53215400       7.11093997
C       -3.04513643       3.13302281       6.03295668
C       -2.68310834       2.74233981       4.73174599
H      -11.02870552      -0.72731571       4.46742921
H      -10.09102745      -2.16303815       4.05295652
H      -10.76023301      -1.09403172       2.75764777
H       -8.84083635      -2.56730509       2.22760274
H       -6.93621124      -2.96818539       0.74802914
H       -5.10102930      -1.30924364       0.59031815
H       -5.17125814       0.73685565       1.89434368
H       -7.88616284       1.37867633       4.31472152
H       -5.20522651       1.52032321       4.22184549
H       -6.24949200       2.74602560       4.93944157
H       -7.47000379       3.71598181       2.74776234
H       -4.42146814       4.65044533       4.18658544
H       -4.02845303       4.72176607       2.49273205
H       -3.32968787       3.23467810       0.60896904
H       -1.88360684       1.79961851      -0.79038370
H       -0.03815732       0.13059503       2.72717300
H       -0.27704160       0.43892702       5.43944897
H       -2.65941783       2.82377524       8.12307971
H       -3.81284514       3.87822882       6.21656975
C       -0.74843291       0.96420382       8.02236819
C       -0.19792985       0.45396425       8.96631626
Br       0.69218704      -0.37104999      10.49260045
C        4.03133243     -10.18135814      -1.28625470
O        4.04056474      -9.03335144      -0.44707163
C        3.14761584      -8.03159627      -0.75913871
C        2.42039853      -7.96076180      -1.95320729
C        1.55704128      -6.89039942      -2.18898539
C        1.42210063      -5.88522671      -1.23966606
C        2.14881982      -5.94687702      -0.04972602
C        3.03033594      -7.00594317       0.21119829
N        3.69393067      -7.16540558       1.45271893
C        4.09152240      -5.95858021       2.18821146
C        3.01212477      -5.60674926       3.23524703
H        2.02751982      -5.52892451       2.76642042
O        2.91132421      -6.69479797       4.17072391
C        3.30378625      -4.31429871       4.00086935
N        3.49596287      -3.16105832       3.13521118
C        2.47808357      -2.49165817       2.47963490
C        1.08154928      -2.65433940       2.52412466
C        0.29493694      -1.83271506       1.71026809
C        0.88277910      -0.88277910       0.88277910
C        2.26931248      -0.72042917       0.84348567
C        3.08236820      -1.53795733       1.65792312
C        4.49526730      -1.62949447       1.85299806
C        5.59588199      -0.93945816       1.30078797
C        6.88800310      -1.27816675       1.70829127
C        7.10471116      -2.27891803       2.64815332
C        6.02908488      -2.97561249       3.20641855
C        4.72911593      -2.63541305       2.79266516
H        4.75335411     -10.89713452      -0.88166961
H        4.35052184      -9.93466051      -2.30423653
H        3.04678031     -10.66082713      -1.28375838
H        2.50521189      -8.71906362      -2.72314152
H        0.98930931      -6.84120615      -3.11446046
H        0.74677665      -5.05167171      -1.41634455
H        2.00266859      -5.14087056       0.65891831
H        4.47295809      -7.81188036       1.29472223
H        4.31083477      -5.13823645       1.49832399
H        5.02427056      -6.19479961       2.71588901
H        2.84061635      -7.49101814       3.60211345
H        4.18123039      -4.43273229       4.64453624
H        2.47700422      -4.08234161       4.68360531
H        0.61285412      -3.39262836       3.16785254
H       -0.78679063      -1.94569714       1.73393514
H        2.72336834       0.02408576       0.19664277
H        5.43251847      -0.15716359       0.56573553
H        8.11591212      -2.53237282       2.95798783
H        6.21358253      -3.75678177       3.93727941
C        8.01289879      -0.57921932       1.14288682
C        8.95499892       0.00614915       0.66936059
Br      10.47829516       0.95264046      -0.09629127
