194
Properties=species:S:1:pos:R:3 pbc="F F F"
C        6.63785673       3.47396948       2.59154461
C        6.56709766       3.82396300       1.13422609
C        5.35289652       4.22421102       0.56702795
C        5.27224986       4.58935766      -0.78563510
C        3.92518849       4.92507577      -1.38999667
C        3.24722046       3.73089215      -2.03190516
C        2.42675770       2.90670541      -1.23976145
C        1.79204709       1.79204709      -1.79204709
C        1.95648761       1.47677179      -3.13748404
C        2.76820478       2.28145952      -3.93395742
C        3.41401899       3.38744758      -3.38148635
O        4.21157254       4.09610405      -4.23477441
C        6.44104938       4.56499889      -1.56184303
O        6.32185906       4.96792172      -2.86688022
C        7.67069165       4.15125607      -1.02532584
C        7.71509367       3.79096975       0.33363529
C        8.93560462       4.03338425      -1.85060862
C        9.00979073       2.74753223      -2.64839853
C        9.53077418       1.58789366      -2.04951723
C        9.57186727       0.38455768      -2.75559090
Br      10.27864554      -1.16271462      -1.93062407
C        9.09204810       0.31172413      -4.06131238
C        8.56702615       1.45235880      -4.66783378
C        8.53005922       2.65582758      -3.96196758
O        8.00078680       3.77238881      -4.55174351
H        7.51737582       2.85953510       2.80987786
H        5.75586764       2.89963553       2.89385255
H        6.69238650       4.38715984       3.19240984
H        4.45627160       4.24141718       1.18393948
H        4.01804490       5.74920618      -2.10835148
H        3.26814855       5.33548305      -0.61051029
H        2.28736698       3.13702656      -0.18610903
H        1.46623009       0.61073789      -3.57256758
H        2.91138286       2.04119993      -4.98377126
H        4.87165695       4.57813015      -3.69454121
H        7.12045641       4.68238587      -3.35853847
H        8.65842549       3.47291573       0.77443929
H        9.81385073       4.09286094      -1.19268415
H        9.04394286       4.90758401      -2.50469095
H        9.89684659       1.62508284      -1.02611174
H        9.11720345      -0.62609067      -4.61002531
H        8.18746444       1.38120858      -5.68285939
H        7.67422760       3.52329724      -5.43710487
C       -5.32386304      -5.10383435       2.90741580
C       -5.48766027      -5.18747837       1.41830407
C       -4.36150339      -5.23904696       0.59047076
C       -4.49243163      -5.35262567      -0.80218532
C       -3.25596387      -5.30929785      -1.67499921
C       -2.92569172      -3.91493211      -2.16939394
C       -2.11147636      -3.08620059      -1.37554761
C       -1.79204709      -1.79204709      -1.79204709
C       -2.27053724      -1.29825841      -3.00194779
C       -3.08038167      -2.10569939      -3.79754066
C       -3.41193070      -3.39371639      -3.37730583
O       -4.23523447      -4.09619878      -4.21101775
C       -5.77995129      -5.43355132      -1.35438869
O       -5.85794020      -5.58381212      -2.71490867
C       -6.92935378      -5.36695692      -0.55096287
C       -6.76135745      -5.25190265       0.84083198
C       -8.33490930      -5.36856930      -1.11611889
C       -8.77737244      -4.00955179      -1.61879726
C       -9.35281715      -3.09171918      -0.72364874
C       -9.73145626      -1.82096101      -1.15959857
Br     -10.50535379      -0.60291154       0.06171033
C       -9.53967796      -1.43977666      -2.48562999
C       -8.96498638      -2.33718727      -3.38504507
C       -8.59035265      -3.60886027      -2.94864146
O       -8.01219496      -4.48493181      -3.82779235
H       -6.23143078      -4.72123472       3.38563244
H       -4.50643401      -4.42343161       3.16821500
H       -5.10638657      -6.09596845       3.31521853
H       -3.36978039      -5.17907553       1.03510662
H       -3.35261763      -6.00541354      -2.51757138
H       -2.39849038      -5.70364677      -1.11200474
H       -1.72923930      -3.45477316      -0.42649012
H       -2.02633028      -0.29235153      -3.33085376
H       -3.46715327      -1.72891249      -4.74028829
H       -4.68592672      -4.78226675      -3.67613484
H       -6.77431157      -5.38572913      -3.00134006
H       -7.63742902      -5.20500703       1.48553412
H       -9.04264271      -5.70924917      -0.34750394
H       -8.42547518      -6.12673514      -1.90400750
H       -9.49674906      -3.36927529       0.31798317
H       -9.82782090      -0.44830778      -2.82500941
H       -8.81195837      -2.02552265      -4.41405140
H       -7.91392852      -4.03330103      -4.68740017
C        2.84343503       5.90893306       4.45478356
C        1.35616544       5.96939678       4.64360322
C        0.62589604       4.79327463       4.84270100
C       -0.76069110       4.83048526       5.05606626
C       -1.53390962       3.53390418       5.17244712
C       -2.10138960       3.05920291       3.84942526
C       -1.30848724       2.24234984       3.02238748
C       -1.79204709       1.79204709       1.79204709
C       -3.06885546       2.14018765       1.36170033
C       -3.86470713       2.95088528       2.16802931
C       -3.37884034       3.41302586       3.39108671
O       -4.22133474       4.22602209       4.09509418
C       -1.40548297       6.07649366       5.08591467
O       -2.75325356       6.06632309       5.33708434
C       -0.70241543       7.27275266       4.87210547
C        0.68613614       7.19850993       4.66005434
C       -1.37521531       8.62889603       4.81548616
C       -2.00939524       8.92462197       3.47170428
C       -1.23209450       9.48972086       2.44636971
C       -1.78843169       9.73385104       1.18973312
Br      -0.72451997      10.49640109      -0.17436607
C       -3.11949765       9.41601858       0.92956838
C       -3.90259435       8.84974267       1.93488170
C       -3.34605551       8.60970007       3.19209879
O       -4.11029386       8.03977543       4.17484982
H        3.21916297       6.81599492       3.97020111
H        3.11750090       5.06158993       3.81756160
H        3.33866311       5.80095471       5.42484489
H        1.14190965       3.83512500       4.82053395
H       -2.32826812       3.62332540       5.92400904
H       -0.87758046       2.75378055       5.58278087
H       -0.30777427       1.96091821       3.34181010
H       -3.45017738       1.79385430       0.40550389
H       -4.86010642       3.23663790       1.83960973
H       -3.67495702       4.76744576       4.70192553
H       -3.12491675       6.94075031       5.09571368
H        1.25444010       8.11296706       4.49837497
H       -0.64205237       9.41568467       5.04165877
H       -2.11018581       8.72116952       5.62486249
H       -0.18757827       9.73098241       2.62948049
H       -3.55223487       9.59931289      -0.05040966
H       -4.93633619       8.59766718       1.71752904
H       -4.99019329       7.84348307       3.80095336
C        4.31814603       2.81891458       6.02105014
C        4.52926648       1.33396721       6.06153529
C        4.75787052       0.62535032       4.87755940
C        4.99231315      -0.75819668       4.89673279
C        5.14074875      -1.50914166       3.59037052
C        3.83424333      -2.08944310       3.08633134
C        3.00758287      -1.29669191       2.26894978
C        1.79204709      -1.79204709       1.79204709
C        1.37642326      -3.08062815       2.11369203
C        2.18252093      -3.87655073       2.92455006
C        3.39055695      -3.37918668       3.41320928
O        4.09505240      -4.22335351       4.22404509
C        5.01304498      -1.42187501       6.13297131
O        5.28540552      -2.76529066       6.10596483
C        4.76984851      -0.74099529       7.33642976
C        4.53725962       0.64511552       7.28028403
C        4.70287462      -1.43573116       8.68099171
C        3.36478562      -2.09509478       8.94584108
C        2.31882409      -1.34262699       9.50673399
C        1.06743609      -1.92201616       9.72256360
Br      -0.32473704      -0.89131742      10.47997461
C        0.83306530      -3.25179564       9.38022368
C        1.85911927      -4.01034809       8.81775135
C        3.11102148      -3.43081236       8.60602053
O        4.11427968      -4.17080161       8.03983783
H        3.81382164       3.17288735       6.92609877
H        3.68984607       3.09635679       5.16816134
H        5.28188621       3.33066217       5.93591245
H        4.74239778       1.15589439       3.92724591
H        5.90318430      -2.29312628       3.67929198
H        5.55273288      -0.83443730       2.82697171
H        3.31560264      -0.28689311       2.00800682
H        0.43176290      -3.47117271       1.74659996
H        1.86535661      -4.88124340       3.18975404
H        4.68484217      -3.67623028       4.78325587
H        5.03643500      -3.15426995       6.97067580
H        4.35263232       1.19647815       8.20074776
H        4.90539285      -0.71157419       9.48242877
H        5.52213718      -2.15949582       8.77458482
H        2.48182445      -0.29931709       9.76689964
H       -0.14272793      -3.70239908       9.54146695
H        1.66188330      -5.04324464       8.54640447
H        3.75727016      -5.05317834       7.82418122
C       -0.00445707       0.01189536      -1.78238275
H       -0.66409135       0.67374010      -2.43557963
H        0.65740317      -0.63156657      -2.45157240
C       -0.90989263      -0.90692880      -0.91072765
C        0.90977584       0.90977584      -0.90977584
C       -0.00465871       1.77757030       0.00794375
H       -0.66225468       2.44313916      -0.64384735
H        0.64322798       2.43503045       0.67728295
C       -1.78241447       0.00034974      -0.00472694
H       -2.45427497      -0.65498947       0.64260836
H       -2.43311707       0.67328779      -0.65473579
C       -0.91132561       0.90220522       0.91563759
C       -0.01476271      -0.02253852       1.78660255
H       -0.67934791      -0.69751639       2.42135241
H        0.63392994       0.61504881       2.47327442
C        0.01484550      -1.77751727      -0.01636693
H        0.67870853      -2.42144646      -0.68295456
H       -0.62264859      -2.45592969       0.64226336
C        1.78714474       0.01002794       0.00389507
H        2.44202412       0.67113390       0.66197326
H        2.45385902      -0.65136977      -0.64189061
C        0.91606151      -0.90478549       0.90901405
