182
Properties=species:S:1:pos:R:3 pbc="F F F"
Cl       8.02956895       0.45943528       0.56849400
C        7.62623468       1.54825870      -0.70126198
C        6.50280515       2.35955298      -0.58584962
C        6.16061479       3.24662637      -1.61692679
C        4.88284933       4.05367345      -1.50768233
C        3.67858785       3.31517858      -2.05539046
C        3.38897921       3.38506456      -3.42948057
C        2.32212667       2.66703227      -3.97050924
Cl       2.00545819       2.75764223      -5.66003151
C        1.51926076       1.87065487      -3.15912693
C        1.79514554       1.79514554      -1.79514554
C        2.86771195       2.51010207      -1.24568844
O        3.15081808       2.43544747       0.09244082
C        6.97611179       3.30375183      -2.76089026
O        6.61907948       4.20387583      -3.72726664
C        8.10628669       2.47869103      -2.89842308
C        8.41888736       1.59864383      -1.84609909
C        8.97339892       2.46218800      -4.13913962
C        8.41139138       1.59015663      -5.24248894
C        8.69227722       0.21322076      -5.25361777
C        8.14574501      -0.61626287      -6.23587284
Cl       8.50884290      -2.29840079      -6.22667468
C        7.30689361      -0.09904913      -7.21904407
C        7.01948012       1.26321120      -7.21700585
Br       5.86143147       1.96026588      -8.54618335
C        7.56982248       2.10135172      -6.23915471
O        7.28793164       3.44399084      -6.22458599
H        5.87680204       2.29446255       0.30189153
H        4.99083516       5.01600778      -2.02491190
H        4.71361185       4.33709776      -0.46074400
H        4.01155838       3.99506641      -4.08068862
H        0.69201440       1.31345055      -3.58952155
H        2.50740681       1.82370521       0.49525984
H        7.05609561       3.97551634      -4.57049372
H        9.28442017       0.94434478      -1.92045211
H        9.97990980       2.10355635      -3.88180554
H        9.14657571       3.48560377      -4.49433238
H        9.33460306      -0.21778028      -4.48835831
H        6.88033957      -0.75512787      -7.97286804
H        6.72443476       3.62649121      -7.00405045
Cl       2.76136302      -5.74831235      -4.93356090
C        1.05444580      -5.78276723      -5.14743391
C        0.33941512      -4.59115523      -5.19646764
C       -1.05294929      -4.60685704      -5.36436163
C       -1.81988675      -3.30068237      -5.32363599
C       -2.22489719      -2.90635333      -3.91790638
C       -3.41814325      -3.41240849      -3.37297260
C       -3.78515451      -3.11408057      -2.06043310
Cl      -5.24224702      -3.76527689      -1.41560802
C       -2.97925796      -2.30447234      -1.26531227
C       -1.79514554      -1.79514554      -1.79514554
C       -1.41810387      -2.09426144      -3.11113715
O       -0.25212856      -1.60439690      -3.63729928
C       -1.70713787      -5.84524739      -5.48836863
O       -3.06139099      -5.80986982      -5.67896114
C       -0.99950709      -7.05859670      -5.42529701
C        0.39595068      -7.00613763      -5.25344332
C       -1.67163080      -8.41345580      -5.48963993
C       -2.22719586      -8.86259938      -4.15424171
C       -1.39189750      -9.52712121      -3.24009703
C       -1.87219260      -9.90829111      -1.98487127
Cl      -0.82773352     -10.72305002      -0.88633324
C       -3.18420544      -9.63238731      -1.61029580
C       -4.02058798      -8.97250028      -2.50660892
Br      -5.80082752      -8.58165974      -1.98539343
C       -3.54721563      -8.59391225      -3.76920103
O       -4.36139948      -7.93772226      -4.65738673
H        0.86063855      -3.64207805      -5.08793355
H       -2.71197471      -3.35891346      -5.96086666
H       -1.22002529      -2.50582313      -5.78560519
H       -4.05596626      -4.05469308      -3.97665405
H       -3.27201024      -2.07924105      -0.24373521
H        0.18796732      -1.08256091      -2.94125858
H       -3.44811037      -6.68253966      -5.47145564
H        0.97410909      -7.92560004      -5.19772611
H       -0.95377584      -9.16553269      -5.84596316
H       -2.45101392      -8.41378691      -6.26171103
H       -0.35851715      -9.74278830      -3.50387565
H       -3.54441156      -9.92565685      -0.62801133
H       -5.24444066      -7.87041085      -4.24012491
Cl       2.76833932       5.67517308       5.01367647
C        1.05986783       5.72382106       5.21180211
C        0.33322701       4.53864380       5.24279097
C       -1.06045956       4.56598605       5.39772235
C       -1.83922780       3.26759352       5.33738379
C       -2.23456317       2.89036786       3.92422586
C       -3.41776828       3.41283388       3.37292218
C       -3.77508975       3.13036339       2.05421503
Cl      -5.21980401       3.80140253       1.40192538
C       -2.96933043       2.32065414       1.25905799
C       -1.79514554       1.79514554       1.79514554
C       -1.42781992       2.07827622       3.11740632
O       -0.27155259       1.57243488       3.64983725
C       -1.70411878       5.80931116       5.52732394
O       -3.06039346       5.78500321       5.70482528
C       -0.98453944       7.01642610       5.48243526
C        0.41193207       6.95233774       5.32322460
C       -1.64447016       8.37694106       5.55331532
C       -2.18308075       8.84388071       4.21707548
C       -1.33292626       9.50901022       3.31717926
C       -1.79767425       9.90651344       2.06116729
Cl      -0.73521369      10.72161495       0.98028814
C       -3.10860833       9.64661568       1.67166454
C       -3.95963398       8.98629858       2.55376461
Br      -5.73844163       8.61729967       2.01213939
C       -3.50185379       8.59137345       3.81710167
O       -4.33057078       7.93461873       4.69131896
H        0.84650736       3.58572304       5.13015737
H       -2.73673912       3.32829630       5.96671941
H       -1.25128303       2.46276401       5.79740656
H       -4.05522513       4.05543922       3.97664905
H       -3.25447481       2.10783183       0.23267986
H        0.17020473       1.05301364       2.95304326
H       -3.43689953       6.66321898       5.50198716
H        0.99921644       7.86675225       5.28168125
H       -0.92298865       9.11878283       5.92350021
H       -2.43111168       8.37741053       6.31798965
H       -0.30011431       9.71236454       3.59270224
H       -3.45669656       9.95251879       0.68886440
H       -5.21020415       7.87962298       4.26514929
Cl       7.81510719      -1.45391321      -1.34851017
C        7.45150551      -2.34898479       0.07526505
C        6.24354851      -3.03067946       0.17397979
C        5.93349874      -3.75866594       1.33200328
C        4.57429043      -4.41744004       1.45247464
C        3.52649140      -3.48968324       2.03298225
C        3.39413384      -3.38087167       3.42851883
C        2.47911132      -2.49011995       3.99043691
Cl       2.35481205      -2.36557112       5.70274876
C        1.67456822      -1.69455384       3.17992051
C        1.79514554      -1.79514554       1.79514554
C        2.71514568      -2.68441174       1.22394504
O        2.84579366      -2.78398616      -0.13595508
C        6.86689582      -3.79081363       2.38304444
O        6.53324215      -4.53672572       3.48025407
C        8.08554747      -3.09399710       2.30385623
C        8.36315028      -2.37170822       1.12877177
C        9.08896380      -3.04934509       3.43641764
C        8.75451721      -2.00675978       4.48275996
C        9.17741768      -0.67866900       4.30302907
C        8.83961237       0.30740258       5.23314519
Cl       9.37328474       1.92514422       4.98897626
C        8.07219308      -0.00215295       6.35254252
C        7.64544791      -1.31403377       6.54021548
Br       6.58449674      -1.72756707       8.05581688
C        7.98662535      -2.30863985       5.61506371
O        7.56592114      -3.60310244       5.78748489
H        5.52814141      -2.98603159      -0.64479995
H        4.64074637      -5.32630279       2.06470567
H        4.25482664      -4.78715870       0.46946826
H        4.02138399      -3.98803158       4.07789783
H        0.96637196      -1.00228780       3.62632674
H        2.22725079      -2.14665434      -0.53805295
H        7.08752695      -4.27409137       4.24048735
H        9.29516292      -1.81914631       1.03490783
H       10.09038271      -2.84002900       3.03485997
H        9.19442176      -4.04313687       3.88895323
H        9.76725210      -0.40841164       3.42951735
H        7.80795528       0.77469012       7.06481458
H        7.08162484      -3.63569322       6.63765835
C       -0.00445707       0.01189536      -1.78238275
H       -0.66409135       0.67374010      -2.43557963
H        0.65740317      -0.63156657      -2.45157240
C       -0.90989263      -0.90692880      -0.91072765
C        0.90977584       0.90977584      -0.90977584
C       -0.00465871       1.77757030       0.00794375
H       -0.66225468       2.44313916      -0.64384735
H        0.64322798       2.43503045       0.67728295
C       -1.78241447       0.00034974      -0.00472694
H       -2.45427497      -0.65498947       0.64260836
H       -2.43311707       0.67328779      -0.65473579
C       -0.91132561       0.90220522       0.91563759
C       -0.01476271      -0.02253852       1.78660255
H       -0.67934791      -0.69751639       2.42135241
H        0.63392994       0.61504881       2.47327442
C        0.01484550      -1.77751727      -0.01636693
H        0.67870853      -2.42144646      -0.68295456
H       -0.62264859      -2.45592969       0.64226336
C        1.78714474       0.01002794       0.00389507
H        2.44202412       0.67113390       0.66197326
H        2.45385902      -0.65136977      -0.64189061
C        0.91606151      -0.90478549       0.90901405
