197
Properties=species:S:1:pos:R:3 pbc="F F F"
C        0.00000000       0.00000000       0.00000000
C        0.88155760       0.88155760      -0.88155760
C        0.29489823       1.87519733      -1.66237758
C        1.09780665       2.67998062      -2.47213665
C        2.48439875       2.48291980      -2.49576016
C        3.07003472       1.48816725      -1.71163418
C        2.26391267       0.68428761      -0.90045943
C        3.29121607       3.34610407      -3.38157215
N        4.57252274       3.22519907      -3.50209761
C        5.30610861       4.04809441      -4.38181564
C        6.68686981       3.82193096      -4.46446289
C        7.50397135       4.56298313      -5.33258416
C        6.95211296       5.56365822      -6.13823512
C        5.57799519       5.80775364      -6.04509699
C        4.76835938       5.05896158      -5.18656109
C        7.74047755       6.36551216      -7.06391224
O        8.91822412       5.82615856      -7.51831782
C        9.38215506       6.75900735      -8.40159233
C       10.53794706       6.70465396      -9.16595064
C       10.78186213       7.83170842      -9.96640969
C        9.91895668       8.94096278      -9.99344506
N       10.27684094      10.02112990     -10.81981180
C       10.04753873      11.22630680     -10.40598955
C       10.39672963      12.40717737     -11.21695836
C        9.79297677      13.63187400     -10.91557992
C       10.10841643      14.76253912     -11.67237778
C       11.03457496      14.66366349     -12.71168712
Br      11.46502659      16.19749131     -13.72928770
C       11.64461167      13.44416651     -13.00728087
C       11.31970598      12.30905179     -12.26178441
C        8.73186515       8.91459718      -9.24239729
C        8.47990859       7.80817831      -8.42363633
N        7.43433609       7.54226014      -7.58268727
H       -0.78091531       2.03018452      -1.65203445
H        0.63192507       3.44950049      -3.08134144
H        4.14640186       1.33281707      -1.73005255
H        2.72019994      -0.09103733      -0.29186947
H        2.70489830       4.09538819      -3.93553264
H        7.13286772       3.04854401      -3.84210885
H        8.57071435       4.35214789      -5.36395998
H        5.12120428       6.58385571      -6.65817036
H        3.71190940       5.29758764      -5.18291389
H       11.20516079       5.85309574      -9.14332102
H       11.67428951       7.85219335     -10.59016051
H        9.57724804      11.43765658      -9.42805630
H        9.06735127      13.71373238     -10.11037355
H        9.62749284      15.71114836     -11.44713391
H       12.37016441      13.36582914     -13.81270450
H       11.79315156      11.35672819     -12.49002078
H        8.01420541       9.72443169      -9.27504696
C       -0.88155760      -0.88155760      -0.88155760
C       -0.44471013      -1.22988095      -2.15788206
C       -1.25013732      -2.03236851      -2.96741808
C       -2.48991882      -2.47982411      -2.49333578
C       -2.92474698      -2.13106984      -1.21401933
C       -2.11570625      -1.32832115      -0.40463232
C       -3.31561054      -3.31114699      -3.39213475
N       -4.48753758      -3.74744392      -3.06483793
C       -5.26041853      -4.51371976      -3.96188037
C       -6.53021947      -4.91670159      -3.52634259
C       -7.39242270      -5.65461743      -4.35249851
C       -6.99403799      -6.01720046      -5.64276786
C       -5.71990460      -5.63541433      -6.07552689
C       -4.87056634      -4.89149665      -5.25181905
C       -7.83993835      -6.77677580      -6.55318781
O       -9.19633164      -6.71544062      -6.35092825
C       -9.71079432      -7.45283348      -7.37912694
C      -11.04548195      -7.70073244      -7.66233726
C      -11.28013459      -8.52793151      -8.77191414
C      -10.23853312      -9.07084992      -9.54398147
N      -10.59480104      -9.90188295     -10.62109866
C       -9.86305755     -10.93857397     -10.87820356
C      -10.17561358     -11.85530515     -11.98994665
C       -9.17213243     -12.70791465     -12.46038361
C       -9.44660955     -13.58296854     -13.51375524
C      -10.72342314     -13.60996093     -14.07654150
Br     -11.09386083     -14.80081760     -15.49712717
C      -11.72810159     -12.76625125     -13.60170621
C      -11.45198921     -11.87989184     -12.55866112
C       -8.90698402      -8.73684120      -9.24503441
C       -8.65130292      -7.92883275      -8.13158757
N       -7.46917695      -7.48210409      -7.60800245
H        0.51423475      -0.88214611      -2.53339231
H       -0.90408361      -2.29563853      -3.96304486
H       -3.88788165      -2.47638255      -0.84500728
H       -2.45562796      -1.05567050       0.59026639
H       -2.84898619      -3.51956084      -4.36727210
H       -6.85471748      -4.64510939      -2.52369371
H       -8.36946627      -5.94494931      -3.97240665
H       -5.38133743      -5.90718393      -7.07470900
H       -3.90650185      -4.62113891      -5.66477016
H      -11.84829800      -7.28662831      -7.06665123
H      -12.30744413      -8.76228686      -9.04691238
H       -8.96597146     -11.19276959     -10.28421988
H       -8.17455233     -12.68782244     -12.02908243
H       -8.66179787     -14.23502861     -13.88894864
H      -12.72468702     -12.78922220     -14.03478882
H      -12.23290972     -11.22046933     -12.18652148
H       -8.07824379      -9.09017256      -9.84526770
C       -0.88155760       0.88155760       0.88155760
C       -2.03158181       1.45627828       0.34461306
C       -2.83724357       2.26571059       1.14696976
C       -2.48444885       2.49575421       2.48287564
C       -1.33301071       1.91777389       3.01905155
C       -0.52842613       1.10641668       2.21381690
C       -3.35721620       3.37373964       3.28793645
N       -3.10452062       3.67631140       4.51898741
C       -3.94537903       4.54329895       5.24734067
C       -3.57244331       4.83406455       6.56675580
C       -4.32145358       5.71026649       7.36781857
C       -5.47762848       6.31321819       6.86315963
C       -5.86604771       6.01091262       5.55388549
C       -5.10981763       5.14603885       4.75802556
C       -6.29746911       7.23515993       7.63727291
O       -5.68925431       7.90151280       8.67193339
C       -6.67030584       8.72341851       9.14903040
C       -6.58310724       9.63528757      10.19015684
C       -7.77003332      10.32383567      10.48611125
C       -8.96621765      10.10651047       9.78063639
N      -10.09711511      10.84114060      10.17952693
C      -11.25527411      10.26266268      10.16189830
C      -12.48426576      10.96922196      10.56737765
C      -13.72027897      10.44951099      10.17064073
C      -14.89661762      11.10414247      10.54257324
C      -14.82886091      12.26140377      11.31966090
Br     -16.42315260      13.14088671      11.82776629
C      -13.59646488      12.77564651      11.72394766
C      -12.41835016      12.13140383      11.34078819
C       -8.97938700       9.21302287       8.69644976
C       -7.81128558       8.50298454       8.39745311
N       -7.56022453       7.56774757       7.43131139
H       -2.30842351       1.28541005      -0.69252989
H       -3.72982005       2.71370164       0.71924531
H       -1.05681732       2.09670611       4.05574804
H        0.36866194       0.65843727       2.63125674
H       -4.23662120       3.75375685       2.74544108
H       -2.67664038       4.37094748       6.97593272
H       -3.99348934       5.90715789       8.38617499
H       -6.76455373       6.46314740       5.13552922
H       -5.46760832       4.97455795       3.75024464
H       -5.66400803       9.80091216      10.73665736
H       -7.76862334      11.05366180      11.29435823
H      -11.38862168       9.21309322       9.84124603
H      -13.77888942       9.55123615       9.56133163
H      -15.85662911      10.70789697      10.22124903
H      -13.54135735      13.67371426      12.33362642
H      -11.45595284      12.53003753      11.65391017
H       -9.86463923       9.05544845       8.09359637
C        0.88155760      -0.88155760       0.88155760
C        2.03242365      -0.34504986       1.45499964
C        2.84224731      -1.14956605       2.25811057
C        2.49450853      -2.48809530       2.48047488
C        1.34047349      -3.02292375       1.90643891
C        0.53032464      -2.21480198       1.10353310
C        3.39135538      -3.30565021       3.32188669
N        3.17976954      -4.55803175       3.56201813
C        4.07546969      -5.31484071       4.34570827
C        3.77521849      -6.67196959       4.52607558
C        4.61716516      -7.52125420       5.26111928
C        5.78535387      -7.02282885       5.84582358
C        6.07968419      -5.66473488       5.68642675
C        5.24266820      -4.82695763       4.94425622
C        6.70519187      -7.84882769       6.61588240
O        6.70290940      -9.19788778       6.36190333
C        7.69501448      -9.68072013       7.16702014
C        8.12904115     -10.99229430       7.28721620
C        9.15116988     -11.20274044       8.22606991
C        9.69849378     -10.16059190       8.99427884
N       10.70520181     -10.49504438       9.91753645
C       10.72939141      -9.88903398      11.06140969
C       11.75357773     -10.18824615      12.07904149
C       11.97200952      -9.26351761      13.10490356
C       12.93861462      -9.52662584      14.07809287
C       13.66627363     -10.71643020      14.02722174
Br      14.96857157     -11.07302904      15.35020499
C       13.44260038     -11.64411211      13.00934656
C       12.48729493     -11.37656150      12.02668574
C        9.25994810      -8.84202427       8.78688726
C        8.22874451      -8.61405968       7.86891904
N        7.60402287      -7.45403700       7.50122362
H        2.31025708       0.69157851       1.28262509
H        3.74030244      -0.72468430       2.69778026
H        1.06990518      -4.06253893       2.07682737
H       -0.36672468      -2.63226192       0.65549483
H        4.25917014      -2.75714103       3.71950796
H        2.86827487      -7.07536595       4.07987976
H        4.34435616      -8.56822897       5.37423709
H        6.98123906      -5.24796056       6.13403074
H        5.54713884      -3.79151058       4.85376151
H        7.70605614     -11.79621318       6.69930822
H        9.53595090     -12.21137002       8.36932245
H        9.98967004      -9.11537314      11.33791774
H       11.41162541      -8.33303131      13.14680048
H       13.11839251      -8.80046247      14.86692014
H       14.00424521     -12.57380467      12.97064816
H       12.31087424     -12.09750253      11.23152377
H        9.69120578      -8.00360710       9.31887118
