165
Properties=species:S:1:pos:R:3 pbc="F F F"
C        0.00000000       0.00000000       0.00000000
C        0.86735716       0.86735716      -0.86735716
C        1.96990759       1.57010095      -0.43884367
C        2.47654199       2.24082029      -1.57766496
C        1.65035582       1.90956797      -2.63518186
O        0.66347832       1.06431272      -2.19767949
C        1.68868106       2.30448555      -4.02742401
O        2.55996861       3.03242969      -4.49692869
N        0.66160252       1.78856541      -4.79361864
C        0.59417646       1.98401689      -6.23314370
C        1.54328993       1.00547458      -6.94532202
C        1.13329751       0.79985450      -8.39720378
C       -0.25489088       0.14912254      -8.50436570
C       -1.17529901       0.51058719      -7.32137576
C       -0.85521449       1.88518068      -6.73909677
N       -0.86336932       0.49261815      -9.78031803
C       -1.85982266      -0.26789377     -10.35907436
O       -2.25917539      -1.31939047      -9.86735683
C       -2.39835587       0.29644285     -11.57909209
C       -3.44845507      -0.10991797     -12.38077308
C       -3.53072108       0.81723771     -13.44816328
C       -2.52267371       1.72992102     -13.24007563
O       -1.83526334       1.43108260     -12.10549152
H        2.36273589       1.59810303       0.56806395
H        3.33823748       2.89302939      -1.63662792
H        0.05310784       1.11332132      -4.34277566
H        0.93993545       3.00690267      -6.43131790
H        1.55234054       0.03422452      -6.43249517
H        2.57071774       1.38579111      -6.89580083
H        1.14910635       1.77158624      -8.90880469
H        1.87050750       0.17343710      -8.91369461
H       -0.13140148      -0.94174009      -8.49741606
H       -2.23086258       0.47164958      -7.61446632
H       -1.04667153      -0.23874458      -6.52948515
H       -1.00837695       2.63548209      -7.52554452
H       -1.56594677       2.12659903      -5.93963195
H       -0.67487335       1.39188428     -10.21060401
H       -4.07455680      -0.97405810     -12.20150286
H       -4.23646062       0.81436863     -14.26713180
C       -2.22791775       2.84876751     -14.09733955
C       -1.98105964       3.78580145     -14.81529809
Br      -1.58191095       5.30090609     -15.97617633
C       -0.86735716      -0.86735716      -0.86735716
C       -1.27496029      -0.55907233      -2.14481958
C       -2.06758011      -1.64841700      -2.57903013
C       -2.09933985      -2.55750583      -1.53825998
O       -1.36005085      -2.07716966      -0.48825002
C       -2.75514342      -3.84292176      -1.42252544
O       -3.40697867      -4.35039256      -2.33195576
N       -2.58341185      -4.46113794      -0.19923678
C       -3.07391849      -5.80413841       0.06671985
C       -2.11486998      -6.84643638      -0.53278017
C       -2.27800356      -8.19916505       0.14681282
C       -1.90340877      -8.13097122       1.63578264
C       -2.16708830      -6.74312938       2.25355374
C       -3.32267307      -6.01630550       1.56991562
N       -2.59410004      -9.18216199       2.36669517
C       -2.14336474      -9.66650693       3.57851373
O       -1.09599842      -9.28689833       4.09410579
C       -3.02421283     -10.64096600       4.18799977
C       -2.96922180     -11.27048930       5.41731106
C       -4.09322372     -12.12919032       5.48773414
C       -4.76371360     -11.97950147       4.29589214
O       -4.13148187     -11.07322072       3.50339182
H       -1.03311360       0.33803398      -2.69769533
H       -2.56504321      -1.77039362      -3.53245796
H       -1.94232731      -4.01593313       0.44905562
H       -4.04335811      -5.89441336      -0.44038454
H       -1.07249815      -6.51550982      -0.43105225
H       -2.30036441      -6.94257304      -1.60937223
H       -3.31644216      -8.53384693       0.02079181
H       -1.65465362      -8.95103820      -0.35194739
H       -0.82862635      -8.33132741       1.73567926
H       -2.36492080      -6.81937741       3.32904489
H       -1.26257908      -6.12997556       2.14848560
H       -4.23111561      -6.61909135       1.69755729
H       -3.51292096      -5.06096751       2.07360426
H       -3.51735541      -9.48533166       2.07507213
H       -2.20360614     -11.11535555       6.16607373
H       -4.37362683     -12.77755222       6.30613925
C       -5.96734076     -12.67952704       3.92867848
C       -6.97537850     -13.26579846       3.62113705
Br      -8.60529027     -14.21374976       3.12386856
C       -0.86735716       0.86735716       0.86735716
C       -2.05152264       1.44961328       0.47771629
C       -2.52437753       2.17008880       1.60056092
C       -1.59802268       1.98705698       2.61002599
O       -0.58171277       1.18504602       2.15871174
C       -1.56442020       2.48850332       3.96766710
O       -2.45404112       3.18505943       4.45022644
N       -0.44519094       2.11344838       4.68514725
C       -0.28695045       2.42827330       6.09611329
C       -1.09894376       1.44227355       6.95286923
C       -0.56708294       1.38486432       8.37840853
C        0.87296805       0.84972888       8.42183652
C        1.67099088       1.18243158       7.14522323
C        1.19925636       2.47827683       6.49004248
N        1.54498658       1.33876274       9.61579070
C        2.63948548       0.70326431      10.16757910
O        3.08432066      -0.35173509       9.72484673
C        3.22009927       1.40213106      11.29514728
C        4.35605316       1.14053626      12.03791694
C        4.44268061       2.15391176      13.02344875
C        3.35197134       2.96955839      12.82973589
O        2.60840863       2.53039847      11.77932094
H       -2.51902053       1.36745847      -0.49370404
H       -3.42887409       2.75912576       1.67989494
H        0.18036909       1.45125788       4.23831603
H       -0.69801683       3.43525333       6.24488585
H       -1.06807127       0.43501535       6.51597360
H       -2.15441291       1.74003322       6.95786355
H       -0.62279549       2.39065673       8.81604506
H       -1.21123812       0.74890876       8.99749233
H        0.83725706      -0.24432104       8.50585259
H        2.74511619       1.24564242       7.35472709
H        1.54446750       0.36448258       6.42405396
H        1.34968555       3.29857489       7.20376033
H        1.82697812       2.70686379       5.62039854
H        1.31739977       2.25317308       9.99184163
H        5.03444398       0.31368680      11.87364513
H        5.20523891       2.26920289      13.78107582
C        3.03284734       4.12861079      13.62242586
C        2.76558098       5.09931718      14.28630371
Br       2.33343389       6.66886732      15.35973804
C        0.86735716      -0.86735716       0.86735716
C        0.56520295      -1.26389030       2.14975897
C        1.65130605      -2.06236339       2.58135781
C        2.55501742      -2.10383315       1.53625509
O        2.07117488      -1.37087558       0.48342007
C        3.83717831      -2.76551432       1.41789799
O        4.31891303      -3.46382101       2.30659296
N        4.47872929      -2.55164729       0.21340999
C        5.72273404      -3.22090967      -0.13230666
C        5.43823743      -4.65764303      -0.60179393
C        6.58296097      -5.19636973      -1.44897491
C        6.75569687      -4.38673014      -2.74382966
C        6.32991683      -2.91322274      -2.58647563
C        6.52480710      -2.40447600      -1.16022014
N        8.12661429      -4.50009368      -3.21714111
C        8.47983741      -4.28612393      -4.53460341
O        7.65367916      -4.04508861      -5.40997679
C        9.90530062      -4.35259765      -4.78071921
C       10.64139977      -4.10516349      -5.92416322
C       12.00019197      -4.32615497      -5.59166703
C       12.01349998      -4.70232278      -4.26849982
O       10.75124939      -4.71286281      -3.76280142
H       -0.32580991      -1.01104070       2.70754417
H        1.77659023      -2.55385404       3.53745052
H        3.95609657      -2.05037370      -0.49726544
H        6.32288707      -3.26966673       0.78560222
H        4.50877092      -4.69604976      -1.18576047
H        5.27831075      -5.30550889       0.26849005
H        7.50378673      -5.17641323      -0.85070268
H        6.40633917      -6.24959534      -1.69829530
H        6.11664853      -4.82765345      -3.52002748
H        6.87360675      -2.26699934      -3.28535277
H        5.26672649      -2.82134070      -2.84399814
H        7.59215496      -2.47406279      -0.91356809
H        6.26388962      -1.34081459      -1.10441999
H        8.88968802      -4.59290414      -2.55497722
H       10.23204880      -3.79858574      -6.87774658
H       12.85929826      -4.22601870      -6.24027715
C       13.19318917      -5.03982536      -3.51482521
C       14.18117887      -5.32248377      -2.88362273
Br      15.77867465      -5.77951851      -1.86302169
