169
Properties=species:S:1:pos:R:3 pbc="F F F"
C        0.00000000       0.00000000       0.00000000
C        0.88239582       0.88239582      -0.88239582
C        0.62043384       2.24527503      -0.97934703
C        1.43201017       3.04522020      -1.78851699
C        2.50950912       2.50517402      -2.50943393
C        2.74660187       1.12756878      -2.39629627
C        1.94117789       0.31866079      -1.58660383
C        3.35152354       3.35240125      -3.36080897
C        4.53303580       2.87945662      -4.16549989
C        5.22794256       4.20492245      -4.43939577
H        5.81699556       4.47772836      -3.54747067
N        4.06438830       5.06826442      -4.58462808
N        3.12272190       4.67466940      -3.52344050
C        4.49854424       6.46263147      -4.63245896
H        4.97460155       6.73527355      -3.67949841
O        5.47720927       6.73735151      -5.67954371
C        6.20660014       5.67657763      -6.15452111
C        7.06175257       5.93871000      -7.22463099
C        7.82893308       4.91083117      -7.77427234
C        7.74350513       3.62067364      -7.24981435
C        6.89357829       3.35692488      -6.17340226
C        6.11517087       4.38281031      -5.62616190
C        3.36898625       7.45945594      -4.90032928
C        3.43781835       8.76169708      -4.37620923
C        2.42498760       9.68955850      -4.63401029
C        1.33744924       9.32291694      -5.42542078
Br      -0.03859212      10.57652101      -5.76554709
C        1.25476011       8.04329666      -5.96680235
C        2.27064654       7.12175358      -5.71002124
H       -0.20402080       2.70150189      -0.44218854
H        1.22074667       4.11065501      -1.86713870
H        3.56178975       0.66950803      -2.94694309
H        2.15197841      -0.74394401      -1.52169571
H        4.19803326       2.37727938      -5.08106467
H        5.18960178       2.20701697      -3.60424184
H        7.11633227       6.94348666      -7.63099857
H        8.48677859       5.11650560      -8.61277021
H        8.33683148       2.81834280      -7.67826951
H        6.83554336       2.35226625      -5.76475028
H        4.28572028       9.04699655      -3.75923018
H        2.49419794      10.68596854      -4.21032677
H        0.41016219       7.74083663      -6.57656039
H        2.20801319       6.11066466      -6.11233685
C       -0.88239582      -0.88239582      -0.88239582
C       -2.04935655      -1.43319459      -0.36250476
C       -2.85066771      -2.23910418      -1.17597547
C       -2.50549916      -2.50816030      -2.51045761
C       -1.32114687      -1.94355011      -3.00576993
C       -0.51344241      -1.13313335      -2.19986675
C       -3.35025973      -3.36040757      -3.35406647
C       -3.07934958      -3.70378706      -4.79485567
C       -4.45424035      -4.19365620      -5.22436422
H       -5.08114276      -3.31375264      -5.44729919
N       -4.88038461      -4.84380090      -3.99309527
N       -4.47457427      -3.95280935      -2.89344818
C       -6.29296617      -5.20239462      -4.09827387
H       -6.90004604      -4.29104883      -4.19827865
O       -6.60242897      -6.03693058      -5.25474494
C       -5.72593239      -6.00185372      -6.30991277
C       -5.98210757      -6.88171933      -7.36126666
C       -5.13059759      -6.91724000      -8.46619901
C       -4.02442033      -6.06857652      -8.52099627
C       -3.76969653      -5.18120995      -7.47299894
C       -4.61550502      -5.14984524      -6.35879282
C       -6.82566997      -5.99822454      -2.90487696
C       -8.17296241      -5.88016292      -2.52259933
C       -8.67829995      -6.62015729      -1.45009915
C       -7.83967468      -7.49062636      -0.75548592
Br      -8.52199846      -8.48452071       0.70304320
C       -6.50544113      -7.63449841      -1.12491958
C       -6.00664572      -6.89663134      -2.19914430
H       -2.35017640      -1.25344037       0.66394714
H       -3.76039906      -2.67377088      -0.76437044
H       -1.01286945      -2.13736728      -4.02800415
H        0.39686740      -0.71214356      -2.61445395
H       -2.30904675      -4.48109385      -4.86623670
H       -2.77410817      -2.83704437      -5.38970805
H       -6.84054001      -7.54340276      -7.30687474
H       -5.32797929      -7.60948757      -9.27858753
H       -3.35826108      -6.09699992      -9.37818279
H       -2.91086584      -4.51821307      -7.52348098
H       -8.82627418      -5.20137908      -3.06429375
H       -9.71913400      -6.50507622      -1.16628302
H       -5.83878085      -8.30077214      -0.58800622
H       -4.95890160      -6.98606080      -2.48605230
C       -0.88239582       0.88239582       0.88239582
C       -0.51074823       1.13534035       2.19896731
C       -1.32325445       1.94318785       2.99930507
C       -2.51058589       2.50790257       2.50562861
C       -2.86240428       2.23160371       1.17645893
C       -2.05410628       1.42599866       0.36633757
C       -3.35954331       3.34940337       3.35578709
C       -4.64263996       4.00962240       2.92572996
C       -4.79708535       5.05215482       4.02302060
H       -4.15352275       5.91323829       3.77543356
N       -4.26187019       4.30377211       5.15163849
N       -3.06941485       3.59925304       4.65216392
C       -4.09942676       5.20007822       6.29412968
H       -3.35927728       5.97678985       6.05330639
O       -5.32458929       5.89659770       6.67291750
C       -6.30013892       6.02149158       5.71606839
C       -7.50274501       6.59745775       6.12489080
C       -8.55014304       6.74857769       5.21531586
C       -8.39238284       6.32698961       3.89462068
C       -7.18656328       5.75672312       3.48061902
C       -6.13761273       5.59424540       4.39228494
C       -3.65073345       4.49963238       7.57840564
C       -2.86728286       5.18761678       8.52082503
C       -2.47162605       4.56768174       9.70924859
C       -2.86360679       3.25494100       9.96723917
Br      -2.31891252       2.41273719      11.57182627
C       -3.65123049       2.55857592       9.05505271
C       -4.04727330       3.18332769       7.87182038
H        0.39624511       0.71556724       2.62034750
H       -1.03280371       2.13442853       4.03130814
H       -3.77839093       2.63889594       0.76095400
H       -2.35582308       1.23179069      -0.65788367
H       -5.46302794       3.28200704       2.91134232
H       -4.56759818       4.48884660       1.94441581
H       -7.61927569       6.91571954       7.15582228
H       -9.48780234       7.18912832       5.53912373
H       -9.20736839       6.44020418       3.18587122
H       -7.06667521       5.43603782       2.44984686
H       -2.56186107       6.21087847       8.31920746
H       -1.85824514       5.11476988      10.41747822
H       -3.95600192       1.53371706       9.23784023
H       -4.64800574       2.64221380       7.14079516
C        0.88239582      -0.88239582       0.88239582
C        2.15126814      -0.44508197       1.24870578
C        2.95195979      -1.25805072       2.05573685
C        2.50582333      -2.51072028       2.50757346
C        1.22454750      -2.92749711       2.11842231
C        0.41426096      -2.11950171       1.31267984
C        3.35645629      -3.35908743       3.34919005
C        2.97409888      -4.70957283       3.89432061
C        4.01004913      -4.86444366       4.99776798
H        3.66387834      -4.29891405       5.87940221
N        5.14498555      -4.20749689       4.36479835
N        4.61103109      -3.00401681       3.70578389
C        6.21354421      -4.03391962       5.34617083
H        5.87289156      -3.36599292       6.15048904
O        6.63011347      -5.27717722       5.98681380
C        5.73659637      -6.31855361       5.98254889
C        6.18927240      -7.52912878       6.50669238
C        5.34607452      -8.64079628       6.52716580
C        4.04752777      -8.53971983       6.02674553
C        3.58910768      -7.32667088       5.50812686
C        4.43501130      -6.21254185       5.47658992
C        7.50631418      -3.45639133       4.76606596
C        8.34637321      -2.66311113       5.56624032
C        9.54218491      -2.15009038       5.05628110
C        9.91046897      -2.43341515       3.74190284
Br      11.52464328      -1.72994860       3.04888409
C        9.10133482      -3.22832788       2.93519643
C        7.91040787      -3.74173024       3.45028326
H        2.53538909       0.51387246       0.91815301
H        3.94708572      -0.91563945       2.33581521
H        0.84769753      -3.89416816       2.43637518
H       -0.57215174      -2.47242404       1.02945780
H        3.06303625      -5.47718150       3.11615956
H        1.96114807      -4.73098038       4.30873215
H        7.20315651      -7.60069670       6.88696430
H        5.70460064      -9.58375737       6.92769638
H        3.39071247      -9.40447760       6.03825373
H        2.57530716      -7.25158352       5.12566921
H        8.05879418      -2.44241782       6.59073500
H       10.16986227      -1.53150044       5.68913053
H        9.37022557      -3.44947554       1.90785810
H        7.25878168      -4.34960583       2.82262719
