150
Properties=species:S:1:pos:R:3 pbc="F F F"
Cl       3.76917062       1.82233271      -7.17287697
C        5.24285696       2.17858036      -6.23236506
C        5.55294579       3.67356199      -6.10543857
H        6.50393412       3.76668527      -5.57023093
Cl       5.86838886       4.39462700      -7.72444146
C        4.48203593       4.50254109      -5.38680792
N        4.37684212       4.17630575      -3.96871229
C        3.40106585       3.37452484      -3.40605490
C        2.27902390       2.74155046      -3.96586901
C        1.48300268       1.94415490      -3.13793547
C        1.79234275       1.79234275      -1.79234275
C        2.89581964       2.43817738      -1.23115177
C        3.71355155       3.24650534      -2.04986494
C        4.87322105       4.04158617      -1.79456723
C        5.61874745       4.31902237      -0.62807758
C        6.71843181       5.17546679      -0.70968103
C        7.09059198       5.75246104      -1.91800697
C        6.36964493       5.48565564      -3.08698513
C        5.26069736       4.62421105      -3.00214835
H        6.06819939       1.65905649      -6.73006347
H        5.11935739       1.71872806      -5.24767704
H        3.49428983       4.39644367      -5.84636070
H        4.72166343       5.57317071      -5.43577676
H        2.01569163       2.85545932      -5.01261316
H        0.61616258       1.44334120      -3.56420727
H        3.12655062       2.32547727      -0.17590032
H        5.32866935       3.87622370       0.31953855
H        7.94651354       6.42233731      -1.96609281
H        6.66722318       5.94793945      -4.02305218
C        7.47454778       5.46816111       0.48036883
C        8.10779490       5.71329261       1.47703559
Br       9.13170194       6.10964950       3.08856144
Cl      -6.47391384      -5.05326404      -1.23720242
C       -5.37836293      -6.12617376      -2.14926569
C       -5.58472681      -6.08053289      -3.66668665
H       -4.90980122      -6.81949728      -4.11155182
Cl      -7.23593158      -6.65274592      -4.09877981
C       -5.34116119      -4.71354141      -4.31668233
N       -3.93947302      -4.31146320      -4.27092394
C       -3.39885986      -3.40778366      -3.37500207
C       -3.99129445      -2.62402230      -2.37112662
C       -3.16480132      -1.81996854      -1.58032320
C       -1.79234275      -1.79234275      -1.79234275
C       -1.20574889      -2.55560127      -2.80379863
C       -2.02195705      -3.37550856      -3.61245623
C       -1.75142490      -4.24101000      -4.71693955
C       -0.57074997      -4.58401716      -5.41108028
C       -0.64636365      -5.46814908      -6.48906690
C       -1.86092650      -6.01631342      -6.88382008
C       -3.04170130      -5.69497849      -6.20560591
C       -2.96362499      -4.80228385      -5.12114791
H       -5.54419041      -7.14071103      -1.77241791
H       -4.35458777      -5.84700032      -1.88417440
H       -5.94881956      -3.92283136      -3.86544328
H       -5.61734913      -4.73385911      -5.37940266
H       -5.06248008      -2.62495131      -2.19633272
H       -3.61354921      -1.21525991      -0.79490193
H       -0.13350559      -2.52144532      -2.97297730
H        0.37959415      -4.15382846      -5.11112017
H       -1.90607333      -6.69977513      -7.72909520
H       -3.98469192      -6.12525838      -6.52826452
C        0.55473085      -5.81189680      -7.20517411
C        1.56064748      -6.09978551      -7.80491389
Br       3.18712961      -6.56527720      -8.77464240
Cl      -5.01188184       1.24869030       6.50380817
C       -6.10055534       2.14359108       5.40965596
C       -6.06531268       3.66291046       5.60372321
H       -6.81305695       4.09659704       4.93119633
Cl      -6.62793845       4.10355710       7.25596176
C       -4.70546741       4.32167728       5.34424025
N       -4.31406488       4.26798060       3.93981468
C       -3.40759417       3.37493344       3.39911798
C       -2.61127693       2.38197007       3.99319637
C       -1.80750441       1.59098812       3.16660052
C       -1.79234275       1.79234275       1.79234275
C       -2.56817257       2.79309342       1.20388280
C       -3.38801983       3.60172243       2.02017958
C       -4.26433961       4.69719439       1.74784045
C       -4.62209901       5.37924692       0.56450147
C       -5.51411863       6.45081866       0.63864235
C       -6.05583219       6.85085872       1.85436908
C       -5.71986901       6.18456228       3.03785441
C       -4.81925531       5.10656735       2.96123410
H       -7.11074224       1.76010877       5.58646834
H       -5.82734374       1.87260226       4.38581649
H       -3.90645873       3.88149107       5.94914439
H       -4.73202974       5.38635903       5.61222213
H       -2.60240537       2.21566269       5.06569606
H       -1.19308769       0.81392064       3.61670272
H       -2.54378310       2.95403861       0.13010650
H       -4.19702847       5.07515949      -0.38683348
H       -6.74559056       7.69106883       1.89828427
H       -6.14526826       6.51128785       3.98165870
C       -5.87295293       7.15466877      -0.56528164
C       -6.17347666       7.74414323      -1.57356798
Br      -6.65939811       8.69727359      -3.20388171
Cl       6.71951215      -4.68911471       1.35575344
C        5.64479449      -5.89399160       2.11501629
C        5.74663873      -5.94237704       3.64293058
H        5.09780652      -6.75398767       3.98905613
Cl       7.40203166      -6.43333530       4.15209035
C        5.36444552      -4.64394625       4.36299317
N        3.94390279      -4.33318480       4.24477258
C        3.40106903      -3.40605223       3.37452434
C        4.00158227      -2.51572317       2.46913792
C        3.17431870      -1.71409119       1.67668316
C        1.79234275      -1.79234275       1.79234275
C        1.19568974      -2.66241607       2.70704299
C        2.01265901      -3.48177127       3.51549155
C        1.73167122      -4.43929932       4.53840391
C        0.53494963      -4.90790250       5.12299528
C        0.60155052      -5.85921330       6.14281581
C        1.82312091      -6.35245828       6.58548080
C        3.02042369      -5.90654661       6.01531540
C        2.95119322      -4.94641791       4.98944562
H        5.90659872      -6.86610794       1.68461269
H        4.62359069      -5.66504113       1.79713066
H        5.94308398      -3.78482903       4.00918119
H        5.57051651      -4.72116483       5.43892956
H        5.07935088      -2.43345371       2.37095952
H        3.63005847      -1.02694140       0.96671118
H        0.11488674      -2.71128716       2.80175431
H       -0.42155729      -4.52132335       4.78558843
H        1.86057263      -7.08957774       7.38479329
H        3.96811756      -6.29531003       6.37478723
C       -0.61689435      -6.33145902       6.74777538
C       -1.63734192      -6.72696481       7.25442903
Br      -3.28731935      -7.36646422       8.07364513
C       -0.00445707       0.01189536      -1.78238275
H       -0.66409135       0.67374010      -2.43557963
H        0.65740317      -0.63156657      -2.45157240
C       -0.90989263      -0.90692880      -0.91072765
C        0.90977584       0.90977584      -0.90977584
C       -0.00465871       1.77757030       0.00794375
H       -0.66225468       2.44313916      -0.64384735
H        0.64322798       2.43503045       0.67728295
C       -1.78241447       0.00034974      -0.00472694
H       -2.45427497      -0.65498947       0.64260836
H       -2.43311707       0.67328779      -0.65473579
C       -0.91132561       0.90220522       0.91563759
C       -0.01476271      -0.02253852       1.78660255
H       -0.67934791      -0.69751639       2.42135241
H        0.63392994       0.61504881       2.47327442
C        0.01484550      -1.77751727      -0.01636693
H        0.67870853      -2.42144646      -0.68295456
H       -0.62264859      -2.45592969       0.64226336
C        1.78714474       0.01002794       0.00389507
H        2.44202412       0.67113390       0.66197326
H        2.45385902      -0.65136977      -0.64189061
C        0.91606151      -0.90478549       0.90901405
