169
Properties=species:S:1:pos:R:3 pbc="F F F"
C        0.00000000       0.00000000       0.00000000
O        8.03506879      -1.59482859      -5.79979582
C        7.53948858      -1.76565609      -4.47636909
C        6.21047001      -1.02071559      -4.30772030
N        6.37746233       0.42687649      -4.57343413
C        5.10361044       1.11758872      -4.26917210
C        5.21155264       2.63034327      -4.55159142
H        5.96530844       3.07635432      -3.89184703
O        5.67310658       2.80948180      -5.89925051
C        3.87027055       3.35913628      -4.39639247
N        3.37599509       3.38879011      -3.02870251
C        2.49965472       2.46604438      -2.48457823
C        1.85152835       1.35375069      -3.05121471
C        1.04500205       0.56458850      -2.22585994
C        0.88277142       0.88277142      -0.88277142
C        1.51110195       1.99851109      -0.32564500
C        2.33345530       2.80647621      -1.14065967
C        3.08827999       3.99548672      -0.89811238
C        3.27588435       4.80683166       0.24189201
C        4.08188186       5.94315094       0.14485430
C        4.70599064       6.27971285      -1.05089014
C        4.54269601       5.48340586      -2.18937438
C        3.72349242       4.34459405      -2.09124012
H        7.81144634      -0.67712178      -6.04606076
H        8.29207572      -1.39237732      -3.77430432
H        7.40166656      -2.83615481      -4.29572886
H        5.83582016      -1.18766689      -3.29160071
H        5.48449897      -1.42512991      -5.02300662
H        7.09838111       0.78772021      -3.94237868
H        4.83745162       0.94959773      -3.22077286
H        4.32260552       0.69246762      -4.91074744
H        6.28966591       2.06544659      -6.05901659
H        3.10301395       2.91131340      -5.03817223
H        3.95890759       4.39546568      -4.74429832
H        1.96483559       1.09696038      -4.09972367
H        0.54378612      -0.30253571      -2.64984169
H        1.37276030       2.24828643       0.72195413
H        2.78727935       4.55072081       1.17698384
H        5.32696500       7.17057589      -1.11404190
H        5.03265037       5.75705632      -3.11890483
C        4.26390770       6.77967329       1.30273899
C        4.41635434       7.48026076       2.27246741
Br       4.66284767       8.61305144       3.84043626
O        0.71367672      -9.33471999      -3.61899275
C        1.39491676      -8.08630898      -3.55880936
C        0.47840149      -7.01035389      -2.96552231
N       -0.74635665      -6.84867823      -3.78273807
C       -1.53063441      -5.71283043      -3.24690642
C       -2.83416208      -5.51217433      -4.04715093
H       -2.59408501      -5.25398737      -5.08543741
O       -3.54561437      -6.75886217      -4.07736236
C       -3.74904969      -4.44537167      -3.43137794
N       -3.20120984      -3.09932436      -3.49295351
C       -2.46524807      -2.49848021      -2.48654904
C       -2.09926255      -2.95111789      -1.20611332
C       -1.29634597      -2.12430461      -0.41479990
C       -0.88277142      -0.88277142      -0.88277142
C       -1.26280170      -0.42597053      -2.14648581
C       -2.06995515      -1.24712671      -2.96350932
C       -2.63479985      -1.08134069      -4.26573854
C       -2.60546631      -0.02898991      -5.20636779
C       -3.29344694      -0.17371225      -6.41301931
C       -3.99606559      -1.33773484      -6.70279321
C       -4.02868419      -2.39706048      -5.78973158
C       -3.34235192      -2.24523966      -4.57173501
H       -0.20867840      -9.11795354      -3.85375339
H        1.71423837      -7.81734815      -4.57089294
H        2.28764538      -8.21068821      -2.93819779
H        1.03140500      -6.06629798      -2.90486101
H        0.18492539      -7.31373335      -1.95356772
H       -0.46510916      -6.62254732      -4.74082353
H       -0.92522605      -4.80150472      -3.28109145
H       -1.78608227      -5.93562779      -2.20411052
H       -2.85104921      -7.44838713      -4.11469276
H       -3.98242575      -4.68284654      -2.38722729
H       -4.71957499      -4.43695122      -3.94214539
H       -2.41976987      -3.91590781      -0.82584195
H       -1.00029441      -2.46538986       0.57459216
H       -0.94521212       0.54920360      -2.50308409
H       -2.06174111       0.88383065      -4.98310586
H       -4.53202032      -1.43523871      -7.64432376
H       -4.58278964      -3.30067073      -6.02515115
C       -3.27613022       0.90362822      -7.36834001
C       -3.26162746       1.80590086      -8.16842110
Br      -3.23817772       3.26479942      -9.46208455
O        1.70727090       7.50515190       6.44215503
C        2.05909738       6.15656168       6.15273728
C        1.15103111       5.59632047       5.05218534
N       -0.27089682       5.64236305       5.46451308
C       -1.08962095       4.97180428       4.42894603
C       -2.58776179       5.01087511       4.79485044
H       -2.75560659       4.45369200       5.72421120
O       -2.95830220       6.37446573       5.04907096
C       -3.48508035       4.46381842       3.67690053
N       -3.31727945       3.03898044       3.43722781
C       -2.46416356       2.49079081       2.49532296
C       -1.61702068       3.09226430       1.54720877
C       -0.82338453       2.26465317       0.74741279
C       -0.88277142       0.88277142       0.88277142
C       -1.73852361       0.28583578       1.81089865
C       -2.54550259       1.10354167       2.63154692
C       -3.51491190       0.82343223       3.64353494
C       -4.03230422      -0.37430016       4.18281995
C       -5.01174806      -0.30762351       5.17605395
C       -5.47555845       0.91618050       5.64485469
C       -4.96825161       2.11488264       5.13234200
C       -3.98840904       2.04486757       4.12604998
H        0.73430395       7.54195884       6.37273044
H        1.96984120       5.57061023       7.07323369
H        3.10495472       6.13486926       5.83132608
H        1.45665863       4.56811882       4.82829379
H        1.27209498       6.20572031       4.14875035
H       -0.36803594       5.12049763       6.33994643
H       -0.75807610       3.93485059       4.31489552
H       -0.94279982       5.50236838       3.48065238
H       -2.16953823       6.78022782       5.46436305
H       -3.31409187       5.00122392       2.73718380
H       -4.54051417       4.64249051       3.91566692
H       -1.56481701       4.16974526       1.42695736
H       -0.15865021       2.71725813       0.01518376
H       -1.78837491      -0.79470574       1.90542344
H       -3.67652061      -1.33264183       3.81713753
H       -6.24263140       0.95375830       6.41519308
H       -5.33958114       3.06517788       5.50385250
C       -5.55069952      -1.52798655       5.71812903
C       -6.00207136      -2.55004059       6.17211691
Br      -6.73190146      -4.20261553       6.90617692
O        8.39811230       1.45801440       5.29993813
C        7.84285458       1.58839401       3.99574101
C        6.47130556       0.90679215       3.93296131
N        6.57959368      -0.53251069       4.26566857
C        5.25864991      -1.16968961       4.06203175
C        5.30566942      -2.67004920       4.41776872
H        6.00054625      -3.18738775       3.74557579
O        5.82784821      -2.80572212       5.74826856
C        3.92340102      -3.33423094       4.36816734
N        3.35711812      -3.40608281       3.03028678
C        2.50053976      -2.46688483       2.48285273
C        1.93936579      -1.29520636       3.02192161
C        1.13098438      -0.50693790       2.19752821
C        0.88277142      -0.88277142       0.88277142
C        1.42452908      -2.05637276       0.35435620
C        2.24721485      -2.86474180       1.16863453
C        2.92799955      -4.10237030       0.95150924
C        3.01476418      -4.97831069      -0.15225085
C        3.76704987      -6.14913200      -0.03600337
C        4.43552464      -6.45793057       1.14313843
C        4.37217581      -5.59834113       2.24495931
C        3.60678549      -4.42439499       2.12814610
H        8.14222620       0.56674832       5.60490745
H        8.53797190       1.14154671       3.27757753
H        7.74931484       2.65430646       3.76623224
H        6.05260587       1.04228634       2.92943445
H        5.80498212       1.38395504       4.66134860
H        7.24747539      -0.96174987       3.61925475
H        4.94651291      -1.04046646       3.02084285
H        4.53459915      -0.67266155       4.71855987
H        6.48829793      -2.08805038       5.83778079
H        3.21420579      -2.81527257       5.02302123
H        3.97837391      -4.35513598       4.76516170
H        2.12025070      -0.99273135       4.04853759
H        0.69661175       0.40538291       2.59986326
H        1.21907327      -2.35049111      -0.67047177
H        2.49111214      -4.74386417      -1.07395999
H        5.01373938      -7.37591421       1.22192919
H        4.89600655      -5.85062950       3.16197547
C        3.84605552      -7.05078274      -1.15599626
C        3.91222276      -7.80591523      -2.09399030
Br       4.01920958      -9.02690060      -3.61064733
