49
Properties=species:S:1:pos:R:3 pbc="F F F"
C        0.00000000       0.00000000       0.00000000
C        0.88168790       0.88168790      -0.88168790
C        0.62006531       2.24936272      -0.97089124
C        1.42319052       3.06031092      -1.77607753
C        2.48264993       2.49561457      -2.48634177
O        3.26879328       3.28862486      -3.27484740
C        2.74211841       1.12431223      -2.39424240
Br       4.17286892       0.32039972      -3.34408903
C        1.93966296       0.31312309      -1.58960924
H       -0.20554533       2.69123607      -0.41788047
H        1.20784598       4.12276793      -1.83578816
H        2.95409480       4.20600325      -3.22869093
H        2.13820303      -0.75325475      -1.51567774
C       -0.88168790      -0.88168790      -0.88168790
C       -0.65448388      -2.25760586      -0.92822953
C       -1.45776454      -3.06860371      -1.73321072
C       -2.48290037      -2.49570422      -2.48600167
O       -3.26916578      -3.28877288      -3.27432688
C       -2.70793021      -1.11613994      -2.43660289
Br      -4.09146686      -0.30092880      -3.44496201
C       -1.90529800      -0.30489866      -1.63219863
H        0.14434311      -2.70588329      -0.34203104
H       -1.26941552      -4.13752325      -1.75946330
H       -2.98041013      -4.21247154      -3.19590731
H       -2.07711967       0.76788161      -1.59138795
C       -0.88168790       0.88168790       0.88168790
C       -2.13756628       0.42250008       1.28025292
C       -2.94815463       1.22498936       2.08643499
C       -2.49514791       2.48182527       2.48763308
O       -3.28810217       3.26786959       3.27629377
C       -1.23554362       2.93868508       2.08644434
Br      -0.58509306       4.64063158       2.61163303
C       -0.42481415       2.13704198       1.28053917
H       -2.49231957      -0.55706801       0.96831966
H       -3.92289341       0.85463029       2.38887838
H       -4.12246538       2.80646774       3.45985586
H        0.55481901       2.48887612       0.96656890
C        0.88168790      -0.88168790       0.88168790
C        2.22987503      -0.56269845       1.04774580
C        3.04084745      -1.36589496       1.85283657
C        2.49574106      -2.48302230       2.48584290
O        3.28894560      -3.26973746       3.27358248
C        1.14381122      -2.79951854       2.31734327
Br       0.36671196      -4.30920051       3.16144520
C        0.33263361      -1.99709703       1.51266466
H        2.65648844       0.30783359       0.55491636
H        4.08799421      -1.10548088       1.97292698
H        4.19260291      -2.91464755       3.28153852
H       -0.71864768      -2.24007756       1.37919614
