57
Properties=species:S:1:pos:R:3 pbc="F F F"
C        0.00000000       0.00000000       0.00000000
C        0.88168790       0.88168790      -0.88168790
C        0.62006531       2.24936272      -0.97089124
C        1.42319052       3.06031092      -1.77607753
C        2.48264993       2.49561457      -2.48634177
O        3.26879328       3.28862486      -3.27484740
C        2.74211841       1.12431223      -2.39424240
C        1.93966296       0.31312309      -1.58960924
H       -0.20554533       2.69123607      -0.41788047
H        1.20784598       4.12276793      -1.83578816
H        2.95409480       4.20600325      -3.22869093
H        2.13820303      -0.75325475      -1.51567774
C        3.82865632       0.51380648      -3.11557317
C        4.73863182       0.00250791      -3.71968770
Br       6.20998525      -0.82421863      -4.69648979
C       -0.88168790      -0.88168790      -0.88168790
C       -0.77743407      -2.27026153      -0.79262368
C       -1.58127471      -3.08135510      -1.59694916
C       -2.48380615      -2.49588848      -2.48491163
O       -3.27051853      -3.28909250      -3.27265451
C       -2.58580884      -1.10361767      -2.57124652
C       -1.78254152      -0.29228098      -1.76757279
H       -0.07427978      -2.72835460      -0.10093683
H       -1.48935815      -4.16019211      -1.51685181
H       -3.07447627      -4.22266277      -3.09164994
H       -1.85891832       0.79033438      -1.83204208
C       -3.50841262      -0.47136878      -3.47825458
C       -4.28109328       0.05813967      -4.23787382
Br      -5.53045256       0.91431005      -5.46611389
C       -0.88168790       0.88168790       0.88168790
C       -2.18341897       0.47719117       1.17970915
C       -2.99420225       1.27995907       1.98541765
C       -2.49545249       2.48229878       2.48685500
O       -3.28854082       3.26861121       3.27511350
C       -1.18998248       2.88439997       2.18629059
C       -0.37902712       2.08245105       1.38091713
H       -2.57386393      -0.45984451       0.78955179
H       -4.00490743       0.95248869       2.20900595
H       -4.15736046       2.84870503       3.38272349
H        0.63619710       2.39182086       1.14500225
C       -0.64824547       4.11993266       2.68985784
C       -0.19454073       5.15469130       3.11159541
Br       0.53906147       6.82780849       3.79350939
C        0.88168790      -0.88168790       0.88168790
C        2.25648814      -0.64918473       0.93464640
C        3.06755848      -1.45280908       1.73921142
C        2.49588144      -2.48374057       2.48498426
O        3.28912807      -3.27084975       3.27228771
C        1.11734810      -2.71365813       2.42966681
C        0.30605139      -1.91076309       1.62558082
H        2.70383008       0.15407745       0.35381859
H        4.13558376      -1.26022035       1.77059797
H        4.21265278      -2.98126937       3.19486684
H       -0.76588287      -2.08659579       1.57991308
C        0.49946878      -3.77006252       3.18850467
C       -0.01800515      -4.65480121       3.82403138
Br      -0.85471673      -6.08534883       4.85162431
