70
Properties=species:S:1:pos:R:3 pbc="F F F"
C        1.79159192       1.79159192      -1.79159192
C        1.52996934       3.15926675      -1.88079527
C        2.33309454       3.97021494      -2.68598156
C        3.39255396       3.40551859      -3.39624579
O        4.17869731       4.19852888      -4.18475142
C        3.65202243       2.03421626      -3.30414642
Br       5.08277295       1.23030375      -4.25399306
C        2.84956699       1.22302711      -2.49951327
H        0.70435870       3.60114009      -1.32778450
H        2.11775001       5.03267196      -2.74569218
H        3.86399882       5.11590728      -4.13859496
H        3.04810705       0.15664927      -2.42558176
C       -1.79159192      -1.79159192      -1.79159192
C       -1.48044849      -3.14291717      -1.94666568
C       -2.28335129      -3.95377212      -2.75216765
C       -3.39219662      -3.40535323      -3.39676850
O       -4.17816728      -4.19826000      -4.18555033
C       -3.70121340      -2.05043189      -3.23873982
Br      -5.19989530      -1.26893300      -4.09824145
C       -2.89901129      -1.23934202      -2.43375405
H       -0.61630095      -3.57208415      -1.44489819
H       -2.02916578      -5.00341007      -2.86353829
H       -3.82615346      -5.10314763      -4.18919997
H       -3.13599297      -0.18566142      -2.30868369
C       -1.79159192       1.79159192       1.79159192
C       -3.01997799       1.30734255       2.24271080
C       -3.83044731       2.10970235       3.04914139
C       -3.40486418       3.39150801       3.39794614
O       -4.19773300       4.17742524       4.18681937
C       -2.17276243       3.87346235       2.94416033
Br      -1.56002831       5.60977543       3.39726601
C       -1.36217010       3.07196080       2.13797646
H       -3.35333312       0.30828601       1.97166416
H       -4.78362188       1.71969045       3.39280182
H       -5.01141832       3.69699294       4.41008979
H       -0.40387719       3.44325423       1.78320666
C        1.79159192      -1.79159192       1.79159192
C        3.11139468      -1.41523020       2.04340648
C        3.92225297      -2.21813990       2.84889818
C        3.40547218      -3.39244272       3.39640344
O        4.19860906      -4.17888948       4.18447906
C        2.08192741      -3.76637590       3.14208181
Br       1.34377470      -5.35473865       3.86855639
C        1.27088446      -2.96427087       2.33695204
H        3.51590818      -0.50007598       1.61729913
H        4.94713382      -1.91273331       3.03624702
H        5.08099306      -3.78031689       4.25719110
H        0.24163343      -3.25179597       2.13690868
C       -0.00445707       0.01189536      -1.78238275
H       -0.66409135       0.67374010      -2.43557963
H        0.65740317      -0.63156657      -2.45157240
C       -0.90989263      -0.90692880      -0.91072765
C        0.90977584       0.90977584      -0.90977584
C       -0.00465871       1.77757030       0.00794375
H       -0.66225468       2.44313916      -0.64384735
H        0.64322798       2.43503045       0.67728295
C       -1.78241447       0.00034974      -0.00472694
H       -2.45427497      -0.65498947       0.64260836
H       -2.43311707       0.67328779      -0.65473579
C       -0.91132561       0.90220522       0.91563759
C       -0.01476271      -0.02253852       1.78660255
H       -0.67934791      -0.69751639       2.42135241
H        0.63392994       0.61504881       2.47327442
C        0.01484550      -1.77751727      -0.01636693
H        0.67870853      -2.42144646      -0.68295456
H       -0.62264859      -2.45592969       0.64226336
C        1.78714474       0.01002794       0.00389507
H        2.44202412       0.67113390       0.66197326
H        2.45385902      -0.65136977      -0.64189061
C        0.91606151      -0.90478549       0.90901405
