178
Properties=species:S:1:pos:R:3 pbc="F F F"
C        3.03381787       2.84084017      -6.26009058
O        2.80164980       1.84965805      -5.26303695
C        2.74934980       2.28893215      -3.96418143
C        1.95326604       1.48220639      -3.14084068
C        1.79203568       1.79203568      -1.79203568
C        2.43469597       2.89602565      -1.24231269
C        3.25009172       3.69104720      -2.05020395
C        3.40692949       3.40131207      -3.41348740
O        4.26603803       4.12834744      -4.19299872
C        4.18806678       5.54759070      -4.00794751
C        4.59243324       6.29146044      -5.28569684
O        5.08259105       5.72905495      -6.26915668
N        4.37169347       7.65138079      -5.31194918
N        3.76515489       8.35036348      -4.23680405
C        3.38952069       9.57904259      -4.62376914
H        3.48916452       9.97627072      -5.63102820
C        2.73672935      10.47685586      -3.64698406
C        1.89119545      11.48259189      -4.13435289
C        1.26109034      12.36347856      -3.25188197
C        1.46880417      12.26825408      -1.87553920
C        2.31391441      11.27961657      -1.37602174
C        2.93490924      10.39637559      -2.25681902
O        3.75522699       9.44219533      -1.71111548
H        4.10379221       3.03845866      -6.36650146
H        2.46323323       3.75721711      -6.07331804
H        2.68497665       2.43177529      -7.21404453
H        1.45513328       0.61783911      -3.57094856
H        2.32182650       3.14274296      -0.19040019
H        3.77423169       4.52900653      -1.59774838
H        4.88771908       5.83749352      -3.21559336
H        3.16343392       5.84357787      -3.74795015
H        4.58534848       8.14457930      -6.16906663
H        1.71791343      11.56253691      -5.20335546
H        0.98002839      12.95254914      -1.18935858
H        2.49145206      11.18770188      -0.30990839
H        4.01156990       8.89537036      -2.49607658
C        0.38335101      13.38201967      -3.76738918
C       -0.35175567      14.23504786      -4.19912646
Br      -1.54036100      15.61432228      -4.89720914
C       -4.88655078      -1.84693920      -5.40125864
O       -4.47427207      -1.27890344      -4.16116929
C       -3.57184128      -2.00503265      -3.42558945
C       -2.76405653      -1.20956330      -2.60269328
C       -1.79203568      -1.79203568      -1.79203568
C       -1.62436973      -3.17248424      -1.77618034
C       -2.44216099      -3.97466947      -2.57451240
C       -3.41237797      -3.40050929      -3.40884171
O       -4.26983753      -4.18394843      -4.13359823
C       -3.65033092      -5.28881737      -4.80445670
C       -4.43010761      -5.67235136      -6.06713154
O       -5.53297709      -5.19635134      -6.35147425
N       -3.83747422      -6.58444259      -6.91310663
N       -2.55047718      -7.13012806      -6.67171718
C       -2.08149696      -7.73944044      -7.77139503
H       -2.58904809      -7.77507716      -8.73233820
C       -0.74959057      -8.38028597      -7.73069272
C       -0.04771081      -8.52547517      -8.93495424
C        1.20900016      -9.13555967      -8.94989136
C        1.78289720      -9.62098934      -7.77450530
C        1.09359068      -9.49259142      -6.57055198
C       -0.15596196      -8.87618384      -6.55595805
O       -0.78952395      -8.77532662      -5.34368723
H       -5.70264373      -2.55808755      -5.24802106
H       -4.05017922      -2.29326272      -5.95032644
H       -5.28015801      -1.03240435      -6.01823411
H       -2.89902902      -0.13163443      -2.61325750
H       -0.87454023      -3.63779046      -1.14263896
H       -2.32323633      -5.05397360      -2.52377668
H       -3.65385392      -6.15462127      -4.13233077
H       -2.62483186      -5.03088328      -5.09924680
H       -4.31823989      -6.80531087      -7.77544365
H       -0.48236199      -8.14640002      -9.85504378
H        2.75896419     -10.09552103      -7.78537927
H        1.51952002      -9.86391741      -5.64466494
H       -1.59787338      -8.24542558      -5.55971788
C        1.92408776      -9.26363560     -10.19321203
C        2.52297363      -9.37089919     -11.23449309
Br       3.49132142      -9.54433535     -12.91815649
C       -5.04473517       5.25959990       1.83041355
O       -3.79666163       4.76798921       1.34969395
C       -3.24677014       3.71670014       2.03899310
C       -2.42547532       2.90590264       1.24493515
C       -1.79203568       1.79203568       1.79203568
C       -1.95277815       1.48208102       3.13817514
C       -2.74954587       2.29924028       3.94255672
C       -3.40751638       3.41319541       3.40101718
O       -4.12533961       4.26300033       4.19904424
C       -4.97940169       3.61423505       5.14996825
C       -6.19059375       4.49056484       5.48843193
O       -6.30282171       5.66205593       5.11592504
N       -7.19267195       3.90842917       6.23392232
N       -7.14991590       2.55278559       6.64962092
C       -8.35498318       2.15330506       7.08404418
H       -9.25607740       2.76181891       7.07856713
C       -8.52610064       0.76660105       7.56786758
C       -9.80503872       0.19698239       7.50611911
C      -10.01981922      -1.10584404       7.96247568
C       -8.97376665      -1.85840103       8.49723184
C       -7.69836602      -1.30290178       8.57408849
C       -7.48393466      -0.00645532       8.11062451
O       -6.20924440       0.49016942       8.20912397
H       -4.89107371       5.97480570       2.64287294
H       -5.72495658       4.45051445       2.11829735
H       -5.51977847       5.80364700       1.00737100
H       -2.29774629       3.15172373       0.19445093
H       -1.45788531       0.62023642       3.57684792
H       -2.83608924       2.06450193       5.00039543
H       -4.41479195       3.45088856       6.07512545
H       -5.34675927       2.66168138       4.74652129
H       -8.02046051       4.45999706       6.41853684
H      -10.62549842       0.77156915       7.08673823
H       -9.13994388      -2.87044010       8.85243233
H       -6.87038530      -1.86874008       8.98741711
H       -6.27816882       1.36837675       7.75647127
C      -11.33673701      -1.68224349       7.87826634
C      -12.43965566      -2.16497803       7.80774102
Br     -14.22298183      -2.94551895       7.69370754
C        5.87774139      -4.21022544       2.04678179
O        4.69001923      -3.90192346       1.32240210
C        3.68466630      -3.29001678       2.02778029
C        2.86026585      -2.48708636       1.22896090
C        1.79203568      -1.79203568       1.79203568
C        1.51995562      -1.90164630       3.15143240
C        2.32145727      -2.71955225       3.95033334
C        3.41088369      -3.41063726       3.40020801
O        4.15199601      -4.27519880       4.16018937
C        4.50076649      -3.78255740       5.46028110
C        5.81194941      -4.40668456       5.95095654
O        6.37932495      -5.33448682       5.36699091
N        6.36663470      -3.87402005       7.09436869
N        5.79358824      -2.77473421       7.78399997
C        6.66693014      -2.26145267       8.66394961
H        7.68962833      -2.60338549       8.80344963
C        6.26380120      -1.10471400       9.49205407
C        7.26821080      -0.25866627       9.98126315
C        6.93855781       0.84036684      10.77825989
C        5.61092652       1.11005171      11.11172263
C        4.60163778       0.27294116      10.64085611
C        4.93125293      -0.81787902       9.83897190
O        3.89857767      -1.60779007       9.40217006
H        5.77325508      -5.16317314       2.57232412
H        6.17329434      -3.39915157       2.72132247
H        6.68348769      -4.33196689       1.31534189
H        3.07175343      -2.40570861       0.16645890
H        0.68539395      -1.36992067       3.59965503
H        2.07401916      -2.82324069       5.00372675
H        3.71080232      -4.06390050       6.16610313
H        4.62777860      -2.69246850       5.43471484
H        7.25866680      -4.24217163       7.39815599
H        8.30448238      -0.45583747       9.72348594
H        5.35407494       1.96340044      11.73126161
H        3.56271702       0.46224623      10.88859155
H        4.35118688      -2.25128483       8.80054513
C        7.98095010       1.70886691      11.26067667
C        8.85395364       2.43623572      11.66470073
Br      10.26552652       3.61232956      12.31797345
C       -0.00445707       0.01189536      -1.78238275
H       -0.66409135       0.67374010      -2.43557963
H        0.65740317      -0.63156657      -2.45157240
C       -0.90989263      -0.90692880      -0.91072765
C        0.90977584       0.90977584      -0.90977584
C       -0.00465871       1.77757030       0.00794375
H       -0.66225468       2.44313916      -0.64384735
H        0.64322798       2.43503045       0.67728295
C       -1.78241447       0.00034974      -0.00472694
H       -2.45427497      -0.65498947       0.64260836
H       -2.43311707       0.67328779      -0.65473579
C       -0.91132561       0.90220522       0.91563759
C       -0.01476271      -0.02253852       1.78660255
H       -0.67934791      -0.69751639       2.42135241
H        0.63392994       0.61504881       2.47327442
C        0.01484550      -1.77751727      -0.01636693
H        0.67870853      -2.42144646      -0.68295456
H       -0.62264859      -2.45592969       0.64226336
C        1.78714474       0.01002794       0.00389507
H        2.44202412       0.67113390       0.66197326
H        2.45385902      -0.65136977      -0.64189061
C        0.91606151      -0.90478549       0.90901405
