157
Properties=species:S:1:pos:R:3 pbc="F F F"
C        0.00000000       0.00000000       0.00000000
C        2.12391384       1.93093615      -5.35018656
O        1.89174578       0.93975402      -4.35313292
C        1.83944577       1.37902812      -3.05427741
C        1.04336201       0.57230236      -2.23093666
C        0.88213165       0.88213165      -0.88213165
C        1.52479195       1.98612163      -0.33240866
C        2.34018770       2.78114317      -1.14029993
C        2.49702547       2.49140805      -2.50358338
O        3.35613400       3.21844341      -3.28309469
C        3.27816276       4.63768668      -3.09804349
C        3.68252922       5.38155641      -4.37579281
O        4.17268703       4.81915092      -5.35925266
N        3.46178945       6.74147676      -4.40204515
N        2.85525086       7.44045945      -3.32690003
C        2.47961667       8.66913857      -3.71386511
H        2.57926050       9.06636670      -4.72112417
C        1.82682532       9.56695184      -2.73708003
C        0.98129142      10.57268787      -3.22444886
C        0.35118631      11.45357453      -2.34197795
C        0.55890015      11.35835005      -0.96563518
C        1.40401039      10.36971255      -0.46611771
C        2.02500522       9.48647156      -1.34691500
O        2.84532297       8.53229130      -0.80121145
H        3.19388819       2.12855464      -5.45659744
H        1.55332920       2.84731309      -5.16341402
H        1.77507263       1.52187126      -6.30414051
H        0.54522925      -0.29206492      -2.66104454
H        1.41192248       2.23283894       0.71950383
H        2.86432767       3.61910250      -0.68784436
H        3.97781505       4.92758949      -2.30568934
H        2.25352990       4.93367384      -2.83804613
H        3.67544445       7.23467528      -5.25916261
H        0.80800940      10.65263288      -4.29345143
H        0.07012437      12.04264512      -0.27945455
H        1.58154803      10.27779786       0.59999563
H        3.10166587       7.98546634      -1.58617256
C       -0.52655301      12.47211565      -2.85748515
C       -1.26165969      13.32514383      -3.28922244
Br      -2.45026503      14.70441826      -3.98730511
C       -2.62958710      -1.51743936      -5.25801009
O       -2.38162329      -0.64010944      -4.16289999
C       -2.08000620      -1.23095119      -2.96179391
C       -1.28123761      -0.42796009      -2.13740333
C       -0.88213165      -0.88213165      -0.88213165
C       -1.28745836      -2.13127713      -0.42458675
C       -2.10437117      -2.92766984      -1.22958980
C       -2.49872916      -2.49067027      -2.50261747
O       -3.36306026      -3.23059717      -3.26401468
C       -3.07548244      -4.63425768      -3.30415280
C       -3.56607077      -5.25848888      -4.61531879
O       -4.26587031      -4.65297060      -5.43224970
N       -3.17768805      -6.55538993      -4.87223339
N       -2.33246943      -7.28931855      -4.00082236
C       -1.86295819      -8.38782408      -4.61183808
H       -2.05934636      -8.66181006      -5.64559495
C       -0.96133467      -9.29706095      -3.87246157
C       -0.07495700     -10.09400485      -4.60946630
C        0.78818419     -10.97782939      -3.95709359
C        0.77731167     -11.09344413      -2.56675292
C       -0.10462898     -10.31477082      -1.82044085
C       -0.95889412      -9.42749729      -2.47200037
O       -1.80519120      -8.68488355      -1.68875097
H       -3.66882256      -1.85683542      -5.25338229
H       -1.92386472      -2.35494248      -5.28524912
H       -2.48265122      -0.94105312      -6.17738007
H       -0.96878157       0.54926753      -2.49469484
H       -0.98816244      -2.49238266       0.55528752
H       -2.44240900      -3.88577419      -0.84309134
H       -3.60582395      -5.12519355      -2.48007639
H       -1.99396920      -4.80538480      -3.22589587
H       -3.45106215      -6.95986683      -5.75835336
H       -0.05402213     -10.00829313      -5.69177846
H        1.44722723     -11.78021128      -2.05923999
H       -0.13171448     -10.38900856      -0.73862722
H       -2.24418079      -8.08547529      -2.34364870
C        1.70359779     -11.77888860      -4.72775699
C        2.47025669     -12.44977569      -5.37318758
Br       3.70987928     -13.53454337      -6.41679426
C       -2.70190520       5.23541068       1.46772067
O       -1.56568192       4.41788176       1.20106904
C       -1.68751555       3.08444728       1.50078848
C       -0.87485182       2.26439894       0.70735028
C       -0.88213165       0.88213165       0.88213165
C       -1.68289286       0.30101343       1.85941595
C       -2.47709761       1.11311275       2.67142045
C       -2.49322021       2.50433901       2.49445767
O       -3.20765155       3.31257992       3.33744064
C       -4.53139314       2.84918055       3.63331923
C       -5.46560028       4.02171562       3.95256254
O       -5.06905455       5.18125454       4.10078152
N       -6.80972362       3.73722189       4.05836586
N       -7.33681590       2.43696356       3.84883088
C       -8.67035498       2.48452587       3.70773950
H       -9.26797069       3.39289909       3.70588159
C       -9.41893625       1.22946019       3.48246075
C      -10.65263424       1.30394105       2.82185286
C      -11.40306231       0.14732778       2.59634870
C      -10.94795239      -1.09739333       3.03232632
C       -9.72776223      -1.18678930       3.69886772
C       -8.97641925      -0.03347707       3.91544960
O       -7.78285542      -0.17926973       4.57524003
H       -2.71287790       5.55211510       2.51404727
H       -3.63919076       4.74920955       1.17565600
H       -2.60333373       6.13966677       0.85808390
H       -0.24687358       2.72029116      -0.05295587
H       -1.69098178      -0.77491864       2.00919444
H       -3.06970643       0.64706083       3.45450727
H       -4.48815819       2.20434685       4.51858885
H       -4.94602525       2.30337804       2.77584657
H       -7.44177323       4.51125573       4.21625338
H      -11.01408281       2.26675835       2.47325257
H      -11.53061568      -1.99633728       2.85794565
H       -9.35478220      -2.14358241       4.04815047
H       -7.39853483       0.73291252       4.54185743
C      -12.66170541       0.23859823       1.90274416
C      -13.71581900       0.31503723       1.32185035
Br     -15.42023152       0.43863263       0.38259419
C        3.97713524      -4.49093681       0.93696450
O        2.73110463      -3.96396254       0.48956555
C        2.26045743      -2.85907452       1.15321935
C        1.43995592      -2.04705511       0.35959000
C        0.88213165      -0.88213165       0.88213165
C        1.11828459      -0.52088660       2.20415105
C        1.91450460      -1.33766873       3.00945746
C        2.49706233      -2.50356628       2.49138828
O        3.21276669      -3.34956723       3.29533819
C        4.13753601      -2.69959339       4.17676352
C        5.32324288      -3.61507269       4.50156287
O        5.36642834      -4.80577215       4.17889012
N        6.38331663      -3.04747333       5.17452141
N        6.41957028      -1.67429632       5.52874374
C        7.65982418      -1.31205171       5.89074446
H        8.53200891      -1.96112066       5.87362180
C        7.91402630       0.08526267       6.30209357
C        9.21261931       0.59202250       6.15783135
C        9.50543183       1.90240599       6.54371295
C        8.51934020       2.72523851       7.08878369
C        7.22559649       2.23307213       7.24731629
C        6.93308585       0.92872624       6.85403217
O        5.64364413       0.49623566       7.03141725
H        3.82972817      -5.16178898       1.78752312
H        4.70490898      -3.70217786       1.15696947
H        4.38927709      -5.09205947       0.11974785
H        1.25320988      -2.33278793      -0.67178893
H        0.68261644       0.38135965       2.62400079
H        2.05999952      -1.06077269       4.05050232
H        3.62393880      -2.46976476       5.11739033
H        4.52752680      -1.78370299       3.71402008
H        7.19362092      -3.62795317       5.34770825
H        9.98674239      -0.03771383       5.72963750
H        8.74616663       3.74320951       7.38926692
H        6.44330300       2.85415789       7.67020515
H        5.65284554      -0.40331309       6.61714614
C       10.84119031       2.41319139       6.37504888
C       11.95988803       2.84097417       6.23379272
Br      13.76872763       3.53266273       6.00539345
