149
Properties=species:S:1:pos:R:3 pbc="F F F"
C        0.00000000       0.00000000       0.00000000
C        2.12391384       1.93093615      -5.35018656
O        1.89174578       0.93975402      -4.35313292
C        1.83944577       1.37902812      -3.05427741
C        1.04336201       0.57230236      -2.23093666
C        0.88213165       0.88213165      -0.88213165
C        1.52479195       1.98612163      -0.33240866
C        2.34018770       2.78114317      -1.14029993
C        2.49702547       2.49140805      -2.50358338
O        3.35613400       3.21844341      -3.28309469
C        3.27816276       4.63768668      -3.09804349
C        3.68252922       5.38155641      -4.37579281
O        4.17268703       4.81915092      -5.35925266
N        3.46178945       6.74147676      -4.40204515
N        2.85525086       7.44045945      -3.32690003
C        2.47961667       8.66913857      -3.71386511
H        2.57926050       9.06636670      -4.72112417
C        1.82682532       9.56695184      -2.73708003
C        0.98129142      10.57268787      -3.22444886
C        0.35118631      11.45357453      -2.34197795
Br      -0.80268505      12.79254317      -3.01966093
C        0.55890015      11.35835005      -0.96563518
C        1.40401039      10.36971255      -0.46611771
C        2.02500522       9.48647156      -1.34691500
O        2.84532297       8.53229130      -0.80121145
H        3.19388819       2.12855464      -5.45659744
H        1.55332920       2.84731309      -5.16341402
H        1.77507263       1.52187126      -6.30414051
H        0.54522925      -0.29206492      -2.66104454
H        1.41192248       2.23283894       0.71950383
H        2.86432767       3.61910250      -0.68784436
H        3.97781505       4.92758949      -2.30568934
H        2.25352990       4.93367384      -2.83804613
H        3.67544445       7.23467528      -5.25916261
H        0.80800940      10.65263288      -4.29345143
H        0.07012437      12.04264512      -0.27945455
H        1.58154803      10.27779786       0.59999563
H        3.10166587       7.98546634      -1.58617256
C       -2.73545690      -1.44539179      -5.22418786
O       -2.48077917      -0.59206577      -4.11178779
C       -2.12872940      -1.20715773      -2.93686417
C       -1.32934676      -0.40488089      -2.11237339
C       -0.88213165      -0.88213165      -0.88213165
C       -1.23942028      -2.15454989      -0.44935207
C       -2.05656256      -2.95128931      -1.25377894
C       -2.49906373      -2.49056877      -2.50238440
O       -3.36390898      -3.23345029      -3.26031284
C       -3.03875821      -4.62667765      -3.34845706
C       -3.54905670      -5.22803498      -4.66278676
O       -4.28841671      -4.62030117      -5.44237273
N       -3.13232962      -6.50569590      -4.96728584
N       -2.24254808      -7.23909983      -4.14096243
C       -1.76036711      -8.30638217      -4.79587107
H       -1.97849967      -8.55707281      -5.83117889
C       -0.81312930      -9.20968224      -4.10804565
C        0.07362497      -9.96024936      -4.89180376
C        0.97922286     -10.83684145      -4.28912021
Br       2.18197280     -11.82662156      -5.36487029
C        1.01124540     -10.99125161      -2.90287917
C        0.12969719     -10.25907222      -2.11046562
C       -0.76710418      -9.37880312      -2.71248448
O       -1.61098240      -8.68266238      -1.88518094
H       -3.76431975      -1.81430576      -5.20041476
H       -2.00783357      -2.26133501      -5.29488773
H       -2.63086768      -0.83975988      -6.13045684
H       -1.05444938       0.59040291      -2.45016240
H       -0.90237785      -2.53401557       0.51113584
H       -2.35671852      -3.92900545      -0.88555057
H       -3.53153971      -5.15522478      -2.52432939
H       -1.95112055      -4.76897548      -3.30515384
H       -3.41955311      -6.89306750      -5.85666174
H        0.06127725      -9.84397800      -5.97139297
H        1.71416906     -11.67243756      -2.43395554
H        0.13556656     -10.36404039      -1.03087643
H       -2.08494539      -8.07808637      -2.51027301
C       -3.75875519       4.66644389       0.97983747
O       -2.52026525       4.09026608       0.57410139
C       -2.15691549       2.92150147       1.19433434
C       -1.33758442       2.10788349       0.40113313
C       -0.88213165       0.88213165       0.88213165
C       -1.22043097       0.45970211       2.16318916
C       -2.01601444       1.27587950       2.96973686
C       -2.49633124       2.50387372       2.49181193
O       -3.20990246       3.34425338       3.30351627
C       -4.22386033       2.70252267       4.08750992
C       -5.37198138       3.66921016       4.39868690
O       -5.32554513       4.87709072       4.14845476
N       -6.50302778       3.13010251       4.97218107
N       -6.64121626       1.74348883       5.23790525
C       -7.92053758       1.43829887       5.50378390
H       -8.75062788       2.14006197       5.47606152
C       -8.28083211       0.03780904       5.81221605
C       -9.59533843      -0.37821968       5.56130940
C       -9.98745323      -1.68821549       5.84750105
Br     -11.76249715      -2.23549807       5.48251997
C       -9.08672485      -2.60097246       6.39713299
C       -7.77878600      -2.20001628       6.66107093
C       -7.38686550      -0.89558558       6.36711186
O       -6.08786299      -0.55492195       6.64588469
H       -3.62545403       5.27610287       1.87748337
H       -4.54354031       3.91281259       1.10770341
H       -4.08368639       5.33860477       0.17879323
H       -1.07092967       2.44117989      -0.59790069
H       -0.86500182      -0.49076421       2.55101997
H       -2.24165120       0.94826747       3.98135586
H       -3.78382756       2.38682108       5.04044525
H       -4.63719455       1.84112173       3.54693359
H       -7.28725760       3.74858743       5.13343731
H      -10.30337620       0.32218691       5.12853061
H       -9.39074063      -3.61872374       6.62020714
H       -7.06177402      -2.89200051       7.08957676
H       -6.01887603       0.36610245       6.28832629
C        3.63139208      -4.75892359       1.01472088
O        2.39961735      -4.15393558       0.63107979
C        2.09764455      -2.95300671       1.22210004
C        1.27903144      -2.13850242       0.42906718
C        0.88213165      -0.88213165       0.88213165
C        1.27888151      -0.42885963       2.13558110
C        2.07415369      -1.24464376       2.94283335
C        2.49591991      -2.50401700       2.49207999
O        3.20864106      -3.34094436       3.30808669
C        4.27032242      -2.70889872       4.03467179
C        5.39539469      -3.70397288       4.34051087
O        5.29963542      -4.91724107       4.13421412
N        6.56323948      -3.18559472       4.85647717
N        6.75719956      -1.79647808       5.06893270
C        8.05455464      -1.52726347       5.28080224
H        8.85908149      -2.25805338       5.24961650
C        8.47231491      -0.13058674       5.52795554
C        9.79054176       0.23071447       5.21860086
C       10.23626390       1.53514624       5.44562114
Br      12.01493202       2.00766361       5.00225065
C        9.38646603       2.49671188       5.99313122
C        8.07576029       2.15067540       6.31475575
C        7.63014897       0.85153395       6.07977676
O        6.33091547       0.56590730       6.41381756
H        3.50899568      -5.33300601       1.93703858
H        4.44507936      -4.02921205       1.08976491
H        3.90540951      -5.46857998       0.22709491
H        0.96666723      -2.49574817      -0.54820653
H        0.96937545       0.54592808       2.50181021
H        2.34579514      -0.89122314       3.93425625
H        3.87463060      -2.34616033       4.99030295
H        4.69333644      -1.88110544       3.45080799
H        7.33134641      -3.82524509       5.01269084
H       10.45909426      -0.50810385       4.78689561
H        9.73215611       3.51018661       6.17025455
H        7.39781175       2.88125003       6.74278855
H        6.21854939      -0.36366880       6.09108658
