89
Properties=species:S:1:pos:R:3 pbc="F F F"
C        0.00000000       0.00000000       0.00000000
C        0.86706371       0.86706371      -0.86706371
C        0.69933836       2.21806907      -1.06272816
C        1.72438660       2.61818630      -1.95426167
C        2.46463248       1.48724893      -2.24474900
O        1.93887713       0.41295478      -1.57231000
C        3.62525144       1.30449681      -3.09315348
O        4.09458170       2.21013187      -3.77734659
N        4.15041360       0.01994706      -3.02599074
N        5.27276234      -0.30718360      -3.73145828
C        5.74561627      -1.49587314      -3.52911845
C        6.93076409      -1.93178381      -4.22514327
C        7.67620147      -1.25829214      -5.17437248
C        8.79226058      -2.02281046      -5.62805163
C        8.84312254      -3.24135364      -4.99982715
Br      10.17173563      -4.52055785      -5.32812256
S        7.58200931      -3.47885420      -3.89258683
H       -0.06657047       2.84116987      -0.62208825
H        1.91798369       3.60962055      -2.34289513
H        3.70388206      -0.65529831      -2.41252566
H        5.26612629      -2.19638281      -2.82053177
H        7.42895319      -0.26123436      -5.52383329
H        9.50625869      -1.68515403      -6.36964848
C       -0.86706371      -0.86706371      -0.86706371
C       -0.65673493      -2.20230136      -1.12109931
C       -1.69993476      -2.60830891      -1.98859091
C       -2.49259209      -1.49687451      -2.20716381
O       -1.98162582      -0.42885154      -1.51366455
C       -3.69125273      -1.32772542      -3.00392358
O       -4.15262781      -2.22470681      -3.70472553
N       -4.26100267      -0.06791169      -2.86743704
N       -5.42129515       0.24155476      -3.51729662
C       -5.92999180       1.40262949      -3.25149928
C       -7.15668701       1.81793032      -3.88536685
C       -7.91271348       1.15194214      -4.83151046
C       -9.07328905       1.88900645      -5.21321914
C       -9.14520376       3.08035805      -4.53675034
Br     -10.53237648       4.31843824      -4.76536209
S       -7.85184518       3.32508696      -3.46898372
H        0.14841306      -2.81124562      -0.73385510
H       -1.87131133      -3.59130547      -2.40788258
H       -3.81653544       0.60077024      -2.24534422
H       -5.44986814       2.09426626      -2.53467337
H       -7.64215474       0.17896430      -5.22836167
H       -9.80240676       1.55183467      -5.94018104
C       -0.86706371       0.86706371       0.86706371
C       -2.09277651       0.50921435       1.37814473
C       -2.55281317       1.62518676       2.11883465
C       -1.57518132       2.59806465       2.02338445
O       -0.53807989       2.12874705       1.25731497
C       -1.50806860       3.93415955       2.58067358
O       -2.43540454       4.43641959       3.21023603
N       -0.28961112       4.55961281       2.34712748
N       -0.04546805       5.80789029       2.84367868
C        1.15115015       6.26871293       2.66129881
C        1.50620709       7.57655149       3.15377915
C        0.71135205       8.50615058       3.79748328
C        1.43166451       9.68928946       4.13987680
C        2.74152482       9.60158310       3.74153777
Br       4.00214486      10.95839656       4.02304863
S        3.11102496       8.14016835       2.96659855
H       -2.59758758      -0.43619214       1.23529222
H       -3.48058758       1.72218382       2.66772799
H        0.42537051       4.05278384       1.83369609
H        1.92545915       5.67723686       2.13849754
H       -0.33920574       8.34008540       4.01226098
H        1.00151561      10.54363940       4.64862935
C        0.86706371      -0.86706371       0.86706371
C        2.23609545      -0.77892115       0.96511900
C        2.63227680      -1.78659327       1.87796450
C        1.47868685      -2.42683261       2.29111095
O        0.39452636      -1.85751941       1.67209615
C        1.28199360      -3.52590437       3.21500375
O        2.21682470      -4.12412917       3.74110628
N       -0.05867316      -3.80332136       3.45170321
N       -0.41824069      -4.78246794       4.33280976
C       -1.68701356      -4.90177030       4.56410485
C       -2.16417834      -5.90478961       5.48351228
C       -1.44349027      -6.85858950       6.17718258
C       -2.27651129      -7.67222313       7.00178991
C       -3.59172936      -7.29628517       6.89704024
Br      -4.98370909      -8.12701738       7.83599204
S       -3.83687580      -6.00141695       5.83120079
H        2.87414313      -0.07899973       0.44354480
H        3.63408016      -2.02596788       2.21045134
H       -0.76102920      -3.23710173       2.98503689
H       -2.42845811      -4.24156116       4.07717220
H       -0.36665998      -6.96352059       6.09469150
H       -1.91774349      -8.47942362       7.62907301
