113
Properties=species:S:1:pos:R:3 pbc="F F F"
C        0.00000000       0.00000000       0.00000000
C        0.88190076       0.88190076      -0.88190076
C        2.21446926       1.09530220      -0.53364370
C        3.01763977       1.90508172      -1.34065289
C        2.49801568       2.48582073      -2.50142607
C        1.15478030       2.28022626      -2.82814681
C        0.34541472       1.47411003      -2.02378303
N        3.28842373       3.32563877      -3.29229131
C        4.04397888       2.80024967      -4.20332972
C        4.25020355       1.32295932      -4.60577900
O        3.71727399       0.34591104      -4.13259310
N        5.17871237       1.35553487      -5.62810297
C        5.56524733       2.65899012      -5.91378936
C        6.46629298       3.07436984      -6.87058410
C        6.69686070       4.45178460      -6.98128092
C        6.02793200       5.36645846      -6.14100006
C        5.11968598       4.93403243      -5.17468014
C        4.91285120       3.57247947      -5.08839008
H        2.63660580       0.64069734       0.35783292
H        4.05385664       2.08066785      -1.06737375
H        0.73835497       2.75188418      -3.71341155
H       -0.69464473       1.31850344      -2.29537097
H        5.50718892       0.52033020      -6.09034229
H        6.98065378       2.37238309      -7.51756053
H        7.40172256       4.81391180      -7.72765544
H        4.59517350       5.62082638      -4.51913879
C        6.28853612       6.77525018      -6.28588407
C        6.50679206       7.95511325      -6.40722443
Br       6.85969347       9.86285204      -6.60342152
C       -0.88190076      -0.88190076      -0.88190076
C       -1.87476603      -1.66835645      -0.30029268
C       -2.67763658      -2.47636756      -1.10937022
C       -2.50254445      -2.48629861      -2.49641943
C       -1.48999124      -1.70843968      -3.06472244
C       -0.68165806      -0.90062735      -2.26102236
N       -3.28001125      -3.32039157      -3.30595099
C       -4.43445812      -2.89900957      -3.71409058
C       -5.16185941      -1.56056945      -3.45651301
O       -4.76944117      -0.61803275      -2.80830421
N       -6.36370802      -1.66985489      -4.12878730
C       -6.46866830      -2.89608687      -4.77327164
C       -7.51973949      -3.35175040      -5.53975703
C       -7.40049886      -4.63091414      -6.09851321
C       -6.24633492      -5.41146747      -5.87758812
C       -5.18979597      -4.94049134      -5.09811124
C       -5.33511396      -3.67790324      -4.56070355
H       -2.03196697      -1.66184580       0.77434255
H       -3.44620147      -3.09712796      -0.65856881
H       -1.33097428      -1.73388172      -4.13879470
H        0.09625726      -0.29657373      -2.71891321
H       -7.05172377      -0.93112326      -4.13501438
H       -8.40718366      -2.75251421      -5.71089954
H       -8.21205607      -5.02089354      -6.71034018
H       -4.29413925      -5.52468531      -4.91631412
C       -6.15834734      -6.72075443      -6.47056860
C       -6.08465773      -7.81728226      -6.96718974
Br      -5.96550788      -9.59027502      -7.77018413
C       -0.88190076       0.88190076       0.88190076
C       -0.37835855       1.38476922       2.08028739
C       -1.18861628       2.18849313       2.88626496
C       -2.49141254       2.50448694       2.48936300
C       -2.99077215       1.97707639       1.29530482
C       -2.18681259       1.17020666       0.48628853
N       -3.31738161       3.27886794       3.31010426
C       -3.25426571       4.56939971       3.22389285
C       -2.37951828       5.47293148       2.32649211
O       -1.56634615       5.12965147       1.49978051
N       -2.72620811       6.76495650       2.67118559
C       -3.70520747       6.77600718       3.65681216
C       -4.29388113       7.87760135       4.23976445
C       -5.26934571       7.64300269       5.21757782
C       -5.62539675       6.32759448       5.58239929
C       -5.02105834       5.22039879       4.98694142
C       -4.06412240       5.48181665       4.02778170
H        0.63596325       1.15916004       2.39627343
H       -0.80241805       2.57457173       3.82490846
H       -4.01154710       2.19612977       0.99597384
H       -2.58750467       0.77393706      -0.44221205
H       -2.30633900       7.57408999       2.23743243
H       -4.02158452       8.88923128       3.95978161
H       -5.75510565       8.49094147       5.69724267
H       -5.28058287       4.20141862       5.25313718
C       -6.63441582       6.12555221       6.58970234
C       -7.47946929       5.95634181       7.43331864
Br      -8.84584928       5.68274290       8.79737486
C        0.88190076      -0.88190076       0.88190076
C        0.68128815      -0.90111518       2.26101183
C        1.49172848      -1.70638194       3.06526395
C        2.48767694      -2.50390405       2.49368149
C        2.69161306      -2.45980011       1.11174020
C        1.88673455      -1.65436087       0.30221236
N        3.32415805      -3.28372654       3.29846922
C        2.93432262      -4.46929114       3.64394451
C        1.63280638      -5.23311441       3.31302108
O        0.70446658      -4.85470008       2.63661147
N        1.75581525      -6.44849989       3.95803507
C        2.96530147      -6.53694206       4.63578328
C        3.43113749      -7.59804745       5.38206198
C        4.69285620      -7.46159892       5.97547109
C        5.44606440      -6.28046156       5.80886456
C        4.96319235      -5.21218839       5.05301781
C        3.71808586      -5.37475037       4.48088452
H       -0.09673436      -0.29729161       2.71891298
H        1.34397192      -1.71687650       4.14104982
H        3.48239737      -3.05572193       0.66553141
H        2.05342775      -1.63671541      -0.77091349
H        1.04156076      -7.16066006       3.91564060
H        2.85346438      -8.50676160       5.51037143
H        5.09122658      -8.28143305       6.57063017
H        5.52649185      -4.29592124       4.91272558
C        6.74028246      -6.17760991       6.43177800
C        7.82419008      -6.09147165       6.95346802
Br       9.57677703      -5.95219337       7.79699664
