105
Properties=species:S:1:pos:R:3 pbc="F F F"
C        0.00000000       0.00000000       0.00000000
C        0.88190076       0.88190076      -0.88190076
C        2.21446926       1.09530220      -0.53364370
C        3.01763977       1.90508172      -1.34065289
C        2.49801568       2.48582073      -2.50142607
C        1.15478030       2.28022626      -2.82814681
C        0.34541472       1.47411003      -2.02378303
N        3.28842373       3.32563877      -3.29229131
C        4.04397888       2.80024967      -4.20332972
C        4.25020355       1.32295932      -4.60577900
O        3.71727399       0.34591104      -4.13259310
N        5.17871237       1.35553487      -5.62810297
C        5.56524733       2.65899012      -5.91378936
C        6.46629298       3.07436984      -6.87058410
C        6.69686070       4.45178460      -6.98128092
C        6.02793200       5.36645846      -6.14100006
Br       6.37029988       7.21725439      -6.33134099
C        5.11968598       4.93403243      -5.17468014
C        4.91285120       3.57247947      -5.08839008
H        2.63660580       0.64069734       0.35783292
H        4.05385664       2.08066785      -1.06737375
H        0.73835497       2.75188418      -3.71341155
H       -0.69464473       1.31850344      -2.29537097
H        5.50718892       0.52033020      -6.09034229
H        6.98065378       2.37238309      -7.51756053
H        7.40172256       4.81391180      -7.72765544
H        4.59517350       5.62082638      -4.51913879
C       -0.88190076      -0.88190076      -0.88190076
C       -1.98481070      -1.52999260      -0.32861186
C       -2.78763180      -2.33851760      -1.13722496
C       -2.50160066      -2.48587303      -2.49778879
C       -1.38099503      -1.84673859      -3.03541974
C       -0.57233035      -1.03933405      -2.23164337
N       -3.28148337      -3.32240130      -3.30246913
C       -4.35679311      -2.84621892      -3.84454624
C       -4.98098759      -1.43535133      -3.76260295
O       -4.56055594      -0.47410535      -3.16111684
N       -6.12895825      -1.50556376      -4.52782819
C       -6.28953554      -2.77154316      -5.07694812
C       -7.31091795      -3.20626982      -5.89405915
C       -7.26062274      -4.53546016      -6.33384332
C       -6.20223591      -5.38480138      -5.94835323
Br      -6.17676917      -7.17095311      -6.57117299
C       -5.17512462      -4.93416557      -5.11910835
C       -5.25103870      -3.62120012      -4.70148194
H       -2.22791107      -1.41524506       0.72368591
H       -3.64249246      -2.85203282      -0.70737295
H       -1.13781958      -1.98037745      -4.08545367
H        0.29090643      -0.54379593      -2.66634017
H       -6.74581989      -0.71667550      -4.65536602
H       -8.12469797      -2.55424832      -6.19165112
H       -8.05101448      -4.91077251      -6.98150280
H       -4.35272447      -5.57097774      -4.81143646
C       -0.88190076       0.88190076       0.88190076
C       -0.36203106       1.42664388       2.05474022
C       -1.17222992       2.23026492       2.86087953
C       -2.49178885       2.50442782       2.48904581
C       -3.00676040       1.93536747       1.32102550
C       -2.20285134       1.12837327       0.51208316
N       -3.31659740       3.27870970       3.31104671
C       -3.28783646       4.56784138       3.19188043
C       -2.45803372       5.46972575       2.25118240
O       -1.65692173       5.12582187       1.41303452
N       -2.82837152       6.76112581       2.57285288
C       -3.78304559       6.77293082       3.58205039
C       -4.38466315       7.87407010       4.15251367
C       -5.32986251       7.64026626       5.15979745
C       -5.64397364       6.32609389       5.56532299
Br      -6.92990592       6.06157313       6.92741621
C       -5.02686561       5.21942582       4.98210712
C       -4.10039881       5.48004693       3.99327500
H        0.66500178       1.23376466       2.35070735
H       -0.77304348       2.64894701       3.77990774
H       -4.03967316       2.12195348       1.04202406
H       -2.61602138       0.69940657      -0.39619827
H       -2.43952138       7.56916499       2.10917505
H       -4.14460568       8.88472703       3.84126469
H       -5.82481233       8.48783254       5.63064492
H       -5.25431107       4.20139001       5.27943758
C        0.88190076      -0.88190076       0.88190076
C        0.75825904      -0.81653203       2.26862410
C        1.56862696      -1.62214301       3.07260439
C        2.48715181      -2.50353652       2.49457416
C        2.61527057      -2.54442703       1.10345576
C        1.81016094      -1.73923647       0.29391036
N        3.32486447      -3.28521221       3.29627713
C        2.89259648      -4.42700116       3.72796063
C        1.53582209      -5.13308392       3.51003586
O        0.59240406      -4.73964089       2.86373317
N        1.63008982      -6.31747039       4.21478999
C        2.86929401      -6.43751437       4.83121843
C        3.31924286      -7.48194070       5.61006336
C        4.61773821      -7.38517828       6.12700972
C        5.42209479      -6.25869204       5.85460369
Br       7.17038770      -6.17591323       6.57259434
C        4.95500471      -5.20667168       5.06672216
C        3.67287852      -5.32927136       4.57157086
H        0.04033841      -0.14652677       2.73260505
H        1.48112474      -1.56716135       4.15361215
H        3.34699077      -3.20664914       0.65001080
H        1.91707236      -1.78800997      -0.78585265
H        0.87775723      -6.98967135       4.25043283
H        2.70222035      -8.34870348       5.81967358
H        5.00476076      -8.19329734       6.74523169
H        5.55742542      -4.33220848       4.84550477
