153
Properties=species:S:1:pos:R:3 pbc="F F F"
C        0.00000000       0.00000000       0.00000000
C        0.88103637       0.88103637      -0.88103637
C        1.41525056       0.36385409      -2.05998136
C        2.23578036       1.16375173      -2.86050201
C        2.53007848       2.48015153      -2.47374183
C        1.96912867       2.99566217      -1.29765321
C        1.14750750       2.19543286      -0.50004649
C        3.44439564       3.35580680      -3.25583549
O        3.50035703       4.56673176      -3.12470169
O        4.25758884       2.55252259      -4.04709132
C        5.35676136       2.97134968      -4.84231590
C        5.56293471       4.30050321      -5.21064623
C        6.66053183       4.63083779      -6.01130109
C        7.53419387       3.63484669      -6.44928076
Br       9.01153851       4.09903853      -7.53355560
C        7.32747464       2.30320589      -6.09542899
C        6.23581063       1.96976264      -5.28647651
C        6.01954592       0.56273523      -4.88951763
N        6.73817314      -0.40640461      -5.36080737
N        6.41649357      -1.64299310      -4.88287856
C        7.07315115      -2.78665682      -5.32248604
O        7.96128471      -2.77252569      -6.17312212
C        6.61211236      -4.02754300      -4.70093444
C        6.99750284      -5.31339281      -5.03702276
C        6.36590908      -6.30604895      -4.23381989
C        5.52136880      -5.75043563      -3.30004365
S        5.48564466      -4.04499073      -3.40504583
H        1.19972910      -0.65841374      -2.36303635
H        2.63348470       0.74582146      -3.78138243
H        2.18003103       4.01911509      -0.99087141
H        0.72899376       2.60323969       0.41697586
H        4.89424082       5.09649303      -4.89771857
H        6.82313274       5.66988348      -6.28950072
H        8.01117876       1.53055684      -6.44044431
H        5.21030858       0.36214777      -4.16719609
H        5.68759300      -1.74314945      -4.18723233
H        7.70413828      -5.52427282      -5.83287446
H        6.52533090      -7.37244762      -4.33477293
H        4.92179919      -6.26421223      -2.56061363
C       -0.88103637      -0.88103637      -0.88103637
C       -1.51933428      -0.32925969      -1.99049203
C       -2.33982471      -1.13043514      -2.78977426
C       -2.52947852      -2.48371796      -2.47077536
C       -1.86482970      -3.03195410      -1.36566025
C       -1.04345770      -2.23020413      -0.56932502
C       -3.43768370      -3.36744272      -3.25091150
O       -3.41252733      -4.58514886      -3.19411430
O       -4.34631912      -2.57166929      -3.93921434
C       -5.46687587      -3.01131341      -4.69223766
C       -5.61610946      -4.32644759      -5.13152709
C       -6.74074442      -4.67751269      -5.88441359
C       -7.69864320      -3.71478968      -6.20488844
Br      -9.21162923      -4.20641347      -7.22608994
C       -7.54993771      -2.39627558      -5.77989623
C       -6.43087045      -2.04298901      -5.01819032
C       -6.27442465      -0.65135131      -4.54602282
N       -7.07839753       0.29650112      -4.91067949
N       -6.80156908       1.52022180      -4.37503175
C       -7.55224584       2.64398112      -4.70071565
O       -8.49034932       2.62425321      -5.49578503
C       -7.12769508       3.87226180      -4.03007052
C       -7.61006426       5.14875154      -4.25982006
C       -6.98916250       6.12974277      -3.43426030
C       -6.05505323       5.57415076      -2.59007435
S       -5.92398861       3.88381108      -2.80552223
H       -1.38519866       0.72098267      -2.24013571
H       -2.81974055      -0.68428885      -3.65665919
H       -1.99405538      -4.08330585      -1.11265630
H       -0.54366462      -2.66470822       0.29311524
H       -4.88234590      -5.09550938      -4.91059715
H       -6.85820741      -5.70627333      -6.21803621
H       -8.29930098      -1.64949955      -6.03337938
H       -5.43426424      -0.44322370      -3.86216451
H       -6.03712116       1.62478057      -3.71933529
H       -8.37735337       5.36145918      -4.99684574
H       -7.21829434       7.18793966      -3.45730153
H       -5.44142895       6.07987743      -1.85664907
C       -0.88103637       0.88103637       0.88103637
C       -0.29792585       1.67013188       1.87102828
C       -1.10427859       2.46570597       2.69004954
C       -2.49765037       2.46242723       2.52389423
C       -3.06999375       1.68175970       1.51069060
C       -2.26229619       0.88901111       0.69167955
C       -3.40787616       3.24309335       3.40506842
O       -4.56758182       3.49707064       3.12713802
O       -2.74360836       3.51884336       4.59475102
C       -3.29086614       4.12149753       5.75806327
C       -4.48858771       4.83579225       5.74970419
C       -4.95288586       5.41548066       6.93430418
C       -4.21503023       5.29118035       8.11211075
Br      -4.85634670       6.08375383       9.70403211
C       -3.01141753       4.58949918       8.12519282
C       -2.54813543       3.99979751       6.94411684
C       -1.28254896       3.23671629       6.95253353
N       -0.51180316       3.18834395       7.99242879
N        0.61197910       2.43055082       7.83780731
C        1.55511725       2.31196826       8.85212936
O        1.45974003       2.88600109       9.93562008
C        2.69336604       1.45412907       8.52474076
C        3.82917387       1.25945103       9.29085562
C        4.75122697       0.35490304       8.69000396
C        4.29034688      -0.12339465       7.48471836
S        2.76242309       0.52718513       7.08093772
H        0.78059215       1.67207588       2.01286798
H       -0.62974266       3.08225014       3.44869579
H       -4.14900467       1.67787254       1.36314032
H       -2.71997173       0.27770288      -0.08241702
H       -5.07892552       4.96215753       4.84736938
H       -5.89195374       5.96459996       6.92596325
H       -2.43967926       4.49647392       9.04602674
H       -1.01095674       2.70198630       6.02670941
H        0.77207241       1.93336902       6.97037927
H        3.98526868       1.75428466      10.24372394
H        5.70228065       0.06839638       9.12154049
H        4.77804347      -0.82379068       6.82003474
C        0.88103637      -0.88103637       0.88103637
C        1.58233848      -1.94341897       0.31332856
C        2.37727100      -2.76179658       1.12096653
C        2.46113682      -2.52183629       2.50099872
C        1.76886712      -1.43735789       3.05621904
C        0.97667552      -0.61922077       2.24709056
C        3.24373673      -3.39581737       3.41648382
O        3.57690292      -3.07130244       4.54358513
O        3.41804967      -4.63276316       2.80638991
C        3.98776741      -5.79734127       3.38531825
C        4.76766761      -5.76543339       4.54098315
C        5.30869441      -6.95435788       5.03961841
C        5.08065308      -8.16089806       4.37677019
Br       5.82220670      -9.75846888       5.06345706
C        4.31274635      -8.19853692       3.21482625
C        3.76160595      -7.01250916       2.71793466
C        2.92924899      -7.04534308       1.49720671
N        2.78239588      -8.12040151       0.78977851
N        1.97195205      -7.98344007      -0.29901309
C        1.74677249      -9.03822694      -1.17601906
O        2.26680867     -10.14565183      -1.05057936
C        0.84495980      -8.72416410      -2.28362010
C        0.54628951      -9.53746080      -3.36261753
C       -0.37539692      -8.93662981      -4.26755286
C       -0.76224905      -7.68356523      -3.85033935
S       -0.00628405      -7.23627628      -2.38429247
H        1.51612761      -2.14231324      -0.75408914
H        2.92494627      -3.57805561       0.65768671
H        1.83347213      -1.23263475       4.12391065
H        0.43409493       0.21125116       2.69241382
H        4.97482498      -4.84150217       5.07212528
H        5.90937917      -6.92694536       5.94619242
H        4.13889015      -9.14179584       2.70149393
H        2.43010905      -6.10669415       1.20284924
H        1.51340675      -7.09919100      -0.48092188
H        0.98018155     -10.52358134      -3.49102296
H       -0.73744130      -9.40136346      -5.17626595
H       -1.45259276      -7.00746023      -4.33666688
