161
Properties=species:S:1:pos:R:3 pbc="F F F"
C        0.00000000       0.00000000       0.00000000
C        0.88103637       0.88103637      -0.88103637
C        1.41525056       0.36385409      -2.05998136
C        2.23578036       1.16375173      -2.86050201
C        2.53007848       2.48015153      -2.47374183
C        1.96912867       2.99566217      -1.29765321
C        1.14750750       2.19543286      -0.50004649
C        3.44439564       3.35580680      -3.25583549
O        3.50035703       4.56673176      -3.12470169
O        4.25758884       2.55252259      -4.04709132
C        5.35676136       2.97134968      -4.84231590
C        5.56293471       4.30050321      -5.21064623
C        6.66053183       4.63083779      -6.01130109
C        7.53419387       3.63484669      -6.44928076
C        7.32747464       2.30320589      -6.09542899
C        6.23581063       1.96976264      -5.28647651
C        6.01954592       0.56273523      -4.88951763
N        6.73817314      -0.40640461      -5.36080737
N        6.41649357      -1.64299310      -4.88287856
C        7.07315115      -2.78665682      -5.32248604
O        7.96128471      -2.77252569      -6.17312212
C        6.61211236      -4.02754300      -4.70093444
C        6.99750284      -5.31339281      -5.03702276
C        6.36590908      -6.30604895      -4.23381989
C        5.52136880      -5.75043563      -3.30004365
S        5.48564466      -4.04499073      -3.40504583
H        1.19972910      -0.65841374      -2.36303635
H        2.63348470       0.74582146      -3.78138243
H        2.18003103       4.01911509      -0.99087141
H        0.72899376       2.60323969       0.41697586
H        4.89424082       5.09649303      -4.89771857
H        6.82313274       5.66988348      -6.28950072
H        8.01117876       1.53055684      -6.44044431
H        5.21030858       0.36214777      -4.16719609
H        5.68759300      -1.74314945      -4.18723233
H        7.70413828      -5.52427282      -5.83287446
H        6.52533090      -7.37244762      -4.33477293
H        4.92179919      -6.26421223      -2.56061363
C        8.65954201       3.98843881      -7.27521307
C        9.60202107       4.28457221      -7.96693138
Br      11.12593001       4.76339487      -9.08538139
C       -0.88103637      -0.88103637      -0.88103637
C       -1.42328773      -2.05497013      -0.36082815
C       -2.21736395      -2.87198477      -1.17068538
C       -2.45961371      -2.51767709      -2.50668103
C       -1.92706852      -1.32387800      -3.01149753
C       -1.13553810      -0.50750949      -2.19993926
C       -3.24717792      -3.37880208      -3.43005792
O       -3.71892386      -2.98842379      -4.48444284
O       -3.24721517      -4.67706621      -2.93292137
C       -3.76402018      -5.83540091      -3.57100585
C       -4.65480334      -5.77687234      -4.64240846
C       -5.13297910      -6.96374066      -5.20595095
C       -4.73181913      -8.19658056      -4.68992163
C       -3.85177645      -8.26255057      -3.61178251
C       -3.36349059      -7.07738768      -3.05117151
C       -2.41416454      -7.13749756      -1.92013667
N       -2.10091290      -8.25217082      -1.33949218
N       -1.20180483      -8.13427263      -0.32030157
C       -0.79588587      -9.23640384       0.42330934
O       -1.22347181     -10.37419451       0.23578518
C        0.17960705      -8.93561790       1.47050706
C        0.65661107      -9.80941509       2.43167123
C        1.60566411      -9.20415025       3.30480612
C        1.83405725      -7.88620206       2.98116799
S        0.89849325      -7.38559945       1.64140644
H       -1.23338059      -2.34205441       0.67108330
H       -2.64005738      -3.77728432      -0.74334689
H       -2.11593914      -1.03083314      -4.04324525
H       -0.71739094       0.40974142      -2.60760807
H       -4.99657937      -4.83390979      -5.05796327
H       -5.82096387      -6.91435986      -6.04719322
H       -3.54302335      -9.22636975      -3.21278682
H       -1.97519008      -6.18431459      -1.58014778
H       -0.80933142      -7.22886176      -0.09348270
H        0.32868827     -10.84139672       2.49996852
H        2.09696580      -9.71083385       4.12621184
H        2.50537224      -7.19150578       3.46793295
C       -5.23351980      -9.41136133      -5.27831276
C       -5.65369412     -10.42874022      -5.77109033
Br      -6.33308044     -12.07375585      -6.56786998
C       -0.88103637       0.88103637       0.88103637
C       -2.16553702       1.21684912       0.45669987
C       -2.96856814       2.03703387       1.25443209
C       -2.47992325       2.53010361       2.47394497
C       -1.19515820       2.16740028       2.89988557
C       -0.39490463       1.34578178       2.10230044
C       -3.26799472       3.45406551       3.33397770
O       -3.01390139       3.67135481       4.50653428
O       -4.23515897       4.07229682       2.54974696
C       -5.10838225       5.12143121       2.94061348
C       -5.35253242       5.44708519       4.27446654
C       -6.24053444       6.48327194       4.57886433
C       -6.88748977       7.17601262       3.55481894
C       -6.65782708       6.84794349       2.22033895
C       -5.76270105       5.81813202       1.91121670
C       -5.49753541       5.47612543       0.49813794
N       -6.15550870       6.01557485      -0.47850764
N       -5.77907583       5.59917489      -1.72187170
C       -6.41718753       6.05962325      -2.86783042
O       -7.36327901       6.84512929      -2.84652716
C       -5.88251616       5.52081605      -4.11782841
C       -6.40083021       5.70753190      -5.38722932
C       -5.63916011       5.05050194      -6.39598203
C       -4.55447138       4.38659182      -5.87008638
S       -4.46842171       4.54814717      -4.17086912
H       -2.54926497       0.84649933      -0.49141260
H       -3.97102531       2.27832506       0.91133822
H       -0.80706088       2.53374263       3.84921402
H        0.60518700       1.08230590       2.43813869
H       -4.87569922       4.91855465       5.09419856
H       -6.42196335       6.74031366       5.62023994
H       -7.16561334       7.39064600       1.42592058
H       -4.70792190       4.73175167       0.29997888
H       -5.01467600       4.94342086      -1.82642098
H       -7.29516104       6.29246145      -5.57488257
H       -5.87407187       5.06662338      -7.45303904
H       -3.80760110       3.81269050      -6.40209101
C       -7.80129066       8.23967053       3.88223270
C       -8.56659891       9.13048403       4.15644172
Br      -9.80403762      10.57085413       4.59981453
C        0.88103637      -0.88103637       0.88103637
C        0.66147975      -0.92070849       2.25689777
C        1.47751112      -1.71443007       3.06809291
C        2.52168808      -2.46106032       2.50122343
C        2.71830824      -2.42998674       1.11414907
C        1.90032105      -1.63787252       0.30479329
C        3.45743000      -3.27553603       3.32307189
O        4.17717136      -4.14766012       2.86695900
O        3.43104106      -2.79782105       4.62834063
C        4.26972946      -3.19934174       5.70135573
C        5.01286605      -4.37925518       5.68196291
C        5.80225557      -4.71407538       6.78633975
C        5.83414893      -3.87977945       7.90439294
C        5.08471481      -2.70565136       7.93574335
C        4.30100839      -2.36215565       6.82888574
C        3.51812704      -1.10879457       6.84487716
N        3.43087574      -0.36205422       7.89964594
N        2.67933112       0.76558612       7.74263403
C        2.46162407       1.64752080       8.79487710
O        2.90388892       1.47078470       9.92877692
C        1.64279118       2.80985365       8.45256627
C        1.16854612       3.77304549       9.32563216
C        0.40195915       4.78028132       8.67200219
C        0.31875607       4.56334862       7.31556938
S        1.15047418       3.14726697       6.84249255
H       -0.13993935      -0.33821937       2.70607169
H        1.28321375      -1.74054051       4.13693432
H        3.51786650      -3.01291795       0.65923308
H        2.07163085      -1.61232801      -0.76870127
H        4.99905759      -5.05614193       4.83325290
H        6.38739029      -5.63090589       6.76422078
H        5.11251392      -2.05931124       8.81035476
H        3.00022769      -0.82681044       5.91261432
H        2.26920289       0.97942983       6.84190282
H        1.36659222       3.74589168      10.39203939
H       -0.06211404       5.62169824       9.17146850
H       -0.19180908       5.16825448       6.57826415
C        6.64971593      -4.23749883       9.03597913
C        7.33275330      -4.53708880       9.98368257
Br       8.43716694      -5.02150045      11.51603888
