158
Properties=species:S:1:pos:R:3 pbc="F F F"
C        1.79256760       1.79256760      -1.79256760
C        1.25210038       2.93500125      -2.38102159
C        2.06088600       3.75322827      -3.16829010
C        3.39996195       3.42171878      -3.36605725
O        4.12919800       4.29201562      -4.13235723
C        3.94324484       2.25551692      -2.80152879
C        3.13074216       1.44639794      -1.99397926
C        5.37097706       1.92085684      -3.05806679
O        6.13594718       2.83473710      -3.36465960
N        5.71389706       0.58223503      -2.98649238
N        7.00175231       0.19762944      -3.23569334
C        7.22945406      -1.07614604      -3.27297375
C        6.23581713      -2.22414300      -3.08334084
O        5.05603459      -2.05905077      -2.84537757
N        6.97484326      -3.38039252      -3.24475824
C        6.44108543      -4.71331369      -3.16984629
C        8.32059381      -3.07687513      -3.50581679
C        9.37561709      -3.94200381      -3.72523376
C       10.63886889      -3.38266286      -3.96375113
C       10.81980495      -1.98483955      -3.97872843
Br      12.54431367      -1.27883124      -4.30342784
C        9.75335365      -1.11512517      -3.75950120
C        8.52235463      -1.69560842      -3.52692019
H        0.21013129       3.20300454      -2.22572881
H        1.65394413       4.65316607      -3.62194664
H        5.07837945       4.03802085      -4.05773727
H        3.52849411       0.56508478      -1.49955810
H        5.00517715      -0.14439956      -2.87385998
H        5.37294605      -4.68307424      -2.93523190
H        6.96188343      -5.27091468      -2.38557451
H        6.57811582      -5.21186710      -4.13426529
H        9.24900653      -5.01886012      -3.71640276
H       11.48693167      -4.04237351      -4.13902289
H        9.86979769      -0.03614624      -3.76879836
C       -1.79256760      -1.79256760      -1.79256760
C       -1.77845581      -3.17518282      -1.61448459
C       -2.59897570      -3.98015591      -2.40327277
C       -3.42205872      -3.39939670      -3.36628256
O       -4.21356333      -4.25964702      -4.08036049
C       -3.41839293      -2.00963605      -3.57226157
C       -2.60610251      -1.20240678      -2.76261007
C       -4.29142296      -1.42924342      -4.62923431
O       -5.27898989      -2.07168869      -4.98466529
N       -3.88344069      -0.22471314      -5.17447064
N       -4.62195273       0.35493091      -6.16805327
C       -4.12250540       1.41476774      -6.71854411
C       -2.79443802       2.10898688      -6.40956383
O       -2.02278519       1.73116701      -5.55074321
N       -2.72193635       3.17199671      -7.28926934
C       -1.62452155       4.09735019      -7.37044667
C       -3.86327293       3.21935647      -8.10561901
C       -4.17507321       4.12130895      -9.10508280
C       -5.39238077       3.95211192      -9.77968830
C       -6.26362904       2.89559658      -9.44566138
Br      -7.89552306       2.71063356     -10.38402077
C       -5.94513327       1.98631395      -8.43891036
C       -4.74038230       2.17929211      -7.79257621
H       -1.14370455      -3.63429735      -0.86086274
H       -2.60585260      -5.05817922      -2.26502502
H       -4.85475330      -3.72033178      -4.59905249
H       -2.61457372      -0.12064168      -2.85792159
H       -2.97738165       0.18566310      -4.94291903
H       -0.86942516       3.85964761      -6.61532615
H       -1.99142999       5.11380943      -7.19892270
H       -1.16745403       4.02930178      -8.36236176
H       -3.51313522       4.93783807      -9.37125201
H       -5.66208508       4.64946320     -10.57095917
H       -6.59999515       1.16465589      -8.16711055
C       -1.79256760       1.79256760       1.79256760
C       -3.04520541       1.32989166       2.19302615
C       -3.84249602       2.12389862       3.01600974
C       -3.38560775       3.37447177       3.42765845
O       -4.22059216       4.07878137       4.25419731
C       -2.13760030       3.86000947       3.00268079
C       -1.33077962       3.04912911       2.19121063
C       -1.69608365       5.21231341       3.44150363
O       -2.18764855       5.67917815       4.46851717
N       -0.79956454       5.86730634       2.61575359
N       -0.36987945       7.12334072       2.94185493
C        0.37006749       7.72786314       2.06848612
C        0.82578222       7.22289670       0.69790049
O        0.54193288       6.12694282       0.25735145
N        1.56920110       8.25333310       0.15507699
C        2.18443175       8.22618104      -1.14413127
C        1.63232081       9.34028063       1.04157565
C        2.27300739      10.55373385       0.87812059
C        2.18739298      11.48258997       1.92476016
C        1.47009976      11.18315119       3.10064240
Br       1.38537770      12.46910430       4.48518367
C        0.82310127       9.95948846       3.26134249
C        0.92600057       9.06560799       2.21405898
H       -3.40512328       0.35280354       1.88093781
H       -4.81556881       1.76858151       3.34490651
H       -3.72010401       4.85396724       4.60006632
H       -0.33927540       3.36909903       1.88476256
H       -0.54239359       5.48997298       1.70227100
H        2.00741604       7.26164857      -1.62912882
H        3.26282098       8.37936331      -1.03999907
H        1.75427887       9.01876972      -1.76397684
H        2.82759365      10.79578501      -0.02164219
H        2.68374374      12.44596577       1.82135901
H        0.26373878       9.70914391       4.15704468
C        1.79256760      -1.79256760       1.79256760
C        3.09549229      -2.08243409       1.39019684
C        3.90940002      -2.86887293       2.20413143
C        3.41470397      -3.36366938       3.40936463
O        4.28766500      -4.10668918       4.15921666
C        2.09277444      -3.10126284       3.80625327
C        1.28448105      -2.29303151       2.99360681
C        1.59211377      -3.67015656       5.08763035
O        2.41556565      -3.96727666       5.95250156
N        0.22685565      -3.87526810       5.18050071
N       -0.30164032      -4.41867659       6.31803882
C       -1.56552320      -4.69755974       6.29424524
C       -2.55814988      -4.50776319       5.14540167
O       -2.25737119      -4.02998272       4.06974986
N       -3.76511778      -4.98438730       5.61993946
C       -4.98778279      -5.02106262       4.86433819
C       -3.63325108      -5.44206738       6.94071917
C       -4.59669617      -5.98843025       7.76711297
C       -4.20803939      -6.36861209       9.05938446
C       -2.87826110      -6.19750312       9.49445182
Br      -2.40368241      -6.72466272      11.24792995
C       -1.90853906      -5.64846219       8.65780656
C       -2.32164937      -5.28340183       7.39191394
H        3.48990684      -1.69447988       0.45447792
H        4.93095551      -3.09114544       1.90695589
H        3.87831730      -4.25212000       5.04370026
H        0.27478817      -2.02658435       3.29176447
H       -0.38751794      -3.74735375       4.37480176
H       -4.83467014      -4.58863321       3.87114063
H       -5.75723919      -4.44578266       5.38799979
H       -5.31197456      -6.06018910       4.75229947
H       -5.62263162      -6.12526940       7.44391138
H       -4.94807077      -6.80111893       9.73053288
H       -0.87886133      -5.50983629       8.97147485
C       -0.00445707       0.01189536      -1.78238275
H       -0.66409135       0.67374010      -2.43557963
H        0.65740317      -0.63156657      -2.45157240
C       -0.90989263      -0.90692880      -0.91072765
C        0.90977584       0.90977584      -0.90977584
C       -0.00465871       1.77757030       0.00794375
H       -0.66225468       2.44313916      -0.64384735
H        0.64322798       2.43503045       0.67728295
C       -1.78241447       0.00034974      -0.00472694
H       -2.45427497      -0.65498947       0.64260836
H       -2.43311707       0.67328779      -0.65473579
C       -0.91132561       0.90220522       0.91563759
C       -0.01476271      -0.02253852       1.78660255
H       -0.67934791      -0.69751639       2.42135241
H        0.63392994       0.61504881       2.47327442
C        0.01484550      -1.77751727      -0.01636693
H        0.67870853      -2.42144646      -0.68295456
H       -0.62264859      -2.45592969       0.64226336
C        1.78714474       0.01002794       0.00389507
H        2.44202412       0.67113390       0.66197326
H        2.45385902      -0.65136977      -0.64189061
C        0.91606151      -0.90478549       0.90901405
