165
Properties=species:S:1:pos:R:3 pbc="F F F"
C        0.00000000       0.00000000       0.00000000
C        0.88302600       0.88302600      -0.88302600
C        0.49803174       1.14514590      -2.19449550
C        1.30292333       1.95223735      -2.99448972
C        2.48507494       2.49329680      -2.47841701
C        2.87741286       2.23273765      -1.15789762
C        2.06423882       1.41883134      -0.36407781
N        4.08713233       2.81759978      -0.71263810
C        4.63875542       2.71208518       0.55118758
O        4.15547501       2.11469039       1.50812691
C        5.92956768       3.42368046       0.77561014
C        6.20691474       3.86600475       2.07883533
C        7.39921816       4.52663900       2.36787680
C        8.33556642       4.73615073       1.35808944
C        8.09046626       4.26004653       0.06084759
C        6.87837139       3.61658757      -0.23492763
C        9.09164370       4.43383460      -1.03331252
O        8.67760447       4.56136499      -2.17886609
N       10.41057749       4.40440479      -0.61907206
C       11.56792774       4.62283974      -1.39438776
C       11.55409312       4.89880714      -2.76243584
C       12.75126434       5.12201779      -3.45238011
C       13.97073546       5.07809574      -2.77901603
C       13.98728062       4.80434916      -1.41540911
C       12.79756925       4.57298008      -0.72362395
H       -0.42052669       0.72726775      -2.59746510
H        1.01070714       2.16093674      -4.02057490
H        3.09260299       3.11972005      -3.12692219
H        2.32440980       1.18681043       0.66272378
H        4.55682972       3.41273755      -1.38249284
H        5.48365664       3.69800342       2.87654282
H        7.59265555       4.87735368       3.37915340
H        9.24118522       5.28684881       1.59872284
H        6.71355042       3.24188006      -1.24193215
H       10.58274038       4.17020635       0.34961874
H       10.62632972       4.94586353      -3.32473066
H       12.72662710       5.33340826      -4.51882209
H       14.89393132       5.25897919      -3.32277333
H       12.83643942       4.36482246       0.34200824
C       15.24095139       4.76647827      -0.70796626
C       16.29090067       4.73476140      -0.11548287
Br      17.98857984       4.68347790       0.84251266
C       -0.88302600      -0.88302600      -0.88302600
C       -0.45517243      -1.21829804      -2.16420267
C       -1.26036602      -2.02517082      -2.96411356
C       -2.48571476      -2.49298988      -2.47808413
C       -2.92134677      -2.15857081      -1.18813056
C       -2.10732813      -1.34551402      -0.39430581
N       -4.17315938      -2.67205778      -0.77215306
C       -4.77219754      -2.48819517       0.46073969
O       -4.30380060      -1.87025335       1.41201545
C       -6.10123655      -3.13445524       0.65805379
C       -6.45216639      -3.50720936       1.96529159
C       -7.68335756      -4.10390592       2.22928313
C       -8.58477036      -4.31797566       1.18911830
C       -8.26479881      -3.90988794      -0.11497845
C       -7.01432267      -3.33146095      -0.38410298
C       -9.22581377      -4.08927580      -1.24370124
O       -8.77003579      -4.28415471      -2.36364504
N      -10.55841685      -3.98637754      -0.88925995
C      -11.69065854      -4.18980097      -1.70469574
C      -11.63151217      -4.52579306      -3.05803086
C      -12.80729464      -4.72857041      -3.78979718
C      -14.05086136      -4.60402642      -3.17295946
C      -14.11262414      -4.27033189      -1.82408286
C      -12.94400752      -4.05901730      -1.09114845
H        0.49692263      -0.85741098      -2.54371782
H       -0.93475897      -2.29071946      -3.96674037
H       -3.09235062      -3.12117406      -3.12572056
H       -2.39995709      -1.05800073       0.60946136
H       -4.63995132      -3.27573592      -1.43637286
H       -5.75636696      -3.33492200       2.78617171
H       -7.93426165      -4.40153603       3.24494184
H       -9.52295534      -4.81909519       1.41273934
H       -6.79111015      -3.00849370      -1.39775878
H      -10.76066498      -3.70293196       0.06026894
H      -10.68391560      -4.63635220      -3.57665610
H      -12.74719711      -4.98734069      -4.84431966
H      -14.95745549      -4.76964974      -3.74857861
H      -13.01841944      -3.80291191      -0.03792230
C      -15.39202329      -4.14889874      -1.17447389
C      -16.46352008      -4.04719848      -0.63042638
Br     -18.19603976      -3.88275776       0.24925243
C       -0.88302600       0.88302600       0.88302600
C       -1.58302950       1.94203461       0.31260902
C       -2.38858875       2.74187348       1.11918817
C       -2.49086901       2.47706883       2.48885092
C       -1.78816381       1.41134772       3.06853660
C       -0.97978798       0.61641143       2.25094855
N       -1.94542625       1.21097739       4.46096657
C       -1.36898541       0.20963338       5.22103423
O       -0.64494485      -0.69128508       4.80837872
C       -1.68955632       0.21096980       6.67711188
C       -1.67329984      -1.02393874       7.34472305
C       -1.94937542      -1.09978927       8.70839420
C       -2.22759436       0.06313381       9.42289954
C       -2.20359372       1.30892949       8.77714199
C       -1.94977042       1.38173090       7.39838528
C       -2.45825218       2.57679212       9.52374652
O       -2.99185293       3.50184567       8.92413695
N       -2.02675896       2.56984684      10.83744854
C       -2.19886319       3.57441287      11.81187920
C       -2.84715718       4.78839465      11.57978427
C       -2.99088534       5.72345756      12.61131933
C       -2.49407458       5.44944366      13.88432899
C       -1.84852389       4.23989540      14.11861960
C       -1.69503219       3.30699920      13.09214189
H       -1.50648332       2.14908200      -0.75135916
H       -2.93769063       3.57219798       0.68233019
H       -3.12765393       3.11876643       3.09282489
H       -0.41566370      -0.21859039       2.65142314
H       -2.58899222       1.84037581       4.92269207
H       -1.44761380      -1.93742294       6.79492639
H       -1.94848111      -2.06584812       9.20822284
H       -2.47700161      -0.02481010      10.47711968
H       -1.92082345       2.35711980       6.91941938
H       -1.49618926       1.76467020      11.14246853
H       -3.25203271       5.04060661      10.60428458
H       -3.49577467       6.66668754      12.41639524
H       -2.61640472       6.17954905      14.67973006
H       -1.19029853       2.36785456      13.30110055
C       -1.34027922       3.94242090      15.43269580
C       -0.91462431       3.69328600      16.53323463
Br      -0.22637632       3.29045594      18.31271282
C        0.88302600      -0.88302600       0.88302600
C        1.57967893      -0.31335294       1.94464127
C        2.38013239      -1.12106572       2.74845229
C        2.47734954      -2.49185261       2.48758660
C        1.77743580      -3.07091852       1.41969381
C        0.97922624      -2.25107327       0.61684845
N        1.92987800      -4.46441871       1.22307351
C        1.31255356      -5.23356364       0.25353582
O        0.50574643      -4.83928456      -0.58299251
C        1.63766683      -6.68863276       0.25133840
C        0.65891697      -7.56994373      -0.23477654
C        0.89593267      -8.94228723      -0.28023955
C        2.12323024      -9.44607122       0.14432625
C        3.12648925      -8.57223400       0.59094195
C        2.87791117      -7.19231271       0.65966273
C        4.46600745      -9.07797007       1.01481330
O        5.06359706      -8.46415322       1.89008526
N        4.90214957     -10.19903337       0.33287139
C        6.07244314     -10.95183876       0.56087335
C        7.01643219     -10.65409146       1.54481244
C        8.14261510     -11.46749477       1.71555236
C        8.33031980     -12.58852332       0.90900411
C        7.39051658     -12.88814601      -0.07162370
C        6.26976718     -12.07642591      -0.25201981
H        1.50481712       0.75098922       2.15037825
H        2.92908140      -0.68424167       3.57889572
H        3.10994840      -3.09675600       3.13254084
H        0.41925047      -2.65062678      -0.22138079
H        2.51131723      -4.93993804       1.90080483
H       -0.30056875      -7.18307062      -0.57738462
H        0.12177398      -9.61380166      -0.64471981
H        2.27138917     -10.52277125       0.13515076
H        3.67267398      -6.53046077       0.99422789
H        4.33759697     -10.51159849      -0.44586747
H        6.90726799      -9.79272262       2.19693330
H        8.87190476     -11.22274768       2.48420501
H        9.20485122     -13.21691518       1.05391743
H        5.54805360     -12.33356003      -1.02235999
C        7.56956771     -14.04962380      -0.90379559
C        7.71952303     -15.02236145      -1.60073954
Br       7.96198810     -16.59519595      -2.72763897
