178
Properties=species:S:1:pos:R:3 pbc="F F F"
C        1.79293003       1.79293003      -1.79293003
C        1.40793577       2.05504992      -3.10439953
C        2.21282736       2.86214137      -3.90439374
C        3.39497897       3.40320083      -3.38832103
C        3.78731689       3.14264167      -2.06780165
C        2.97414284       2.32873536      -1.27398183
N        4.99703636       3.72750381      -1.62254212
C        5.54865944       3.62198921      -0.35871645
O        5.06537904       3.02459441       0.59822289
C        6.83947170       4.33358449      -0.13429388
C        7.11681876       4.77590878       1.16893131
C        8.30912218       5.43654302       1.45797278
C        9.24547045       5.64605476       0.44818542
C        9.00037028       5.16995056      -0.84905643
C        7.78827542       4.52649160      -1.14483166
C       10.00154772       5.34373863      -1.94321654
O        9.58750849       5.47126901      -3.08877012
N       11.32048152       5.31430881      -1.52897608
C       12.47783177       5.53274377      -2.30429179
C       12.46399715       5.80871116      -3.67233986
C       13.66116836       6.03192181      -4.36228413
C       14.88063949       5.98799976      -3.68892005
C       14.89718464       5.71425319      -2.32531314
Br      16.54361162       5.66451791      -1.39623907
C       13.70747328       5.48288410      -1.63352797
H        0.48937734       1.63717178      -3.50736912
H        1.92061117       3.07084077      -4.93047893
H        4.00250702       4.02962408      -4.03682622
H        3.23431382       2.09671445      -0.24718025
H        5.46673374       4.32264157      -2.29239686
H        6.39356067       4.60790745       1.96663879
H        8.50255958       5.78725771       2.46924937
H       10.15108925       6.19675283       0.68881881
H        7.62345444       4.15178409      -2.15183617
H       11.49264440       5.08011037      -0.56028529
H       11.53623374       5.85576755      -4.23463468
H       13.63653113       6.24331228      -5.42872612
H       15.80383534       6.16888322      -4.23267735
H       13.74634344       5.27472649      -0.56789579
C       -1.79293003      -1.79293003      -1.79293003
C       -2.60798829      -2.75519662      -1.20420030
C       -3.41304952      -3.55514148      -2.01117148
C       -3.39988267      -3.38689411      -3.39972406
C       -2.58099171      -2.41882983      -3.99793867
C       -1.77425939      -1.62313553      -3.17946511
N       -2.62575060      -2.31256181      -5.40876988
C       -1.92474340      -1.41323862      -6.19138307
O       -1.16586493      -0.53649548      -5.78939015
C       -2.14260080      -1.50103485      -7.66371442
C       -1.98783748      -0.32354932      -8.41240942
C       -2.16208627      -0.33075124      -9.79485491
C       -2.47606624      -1.52164136     -10.44563219
C       -2.59007738      -2.71438552      -9.71491437
C       -2.43878501      -2.70147817      -8.31933549
C       -2.88622652      -4.01370160     -10.38857477
O       -3.52777424      -4.85209026      -9.76768312
N       -2.36521253      -4.13486696     -11.66368693
C       -2.54375073      -5.19500687     -12.57610972
C       -3.29544146      -6.34029496     -12.30931175
C       -3.43659478      -7.33752955     -13.28124998
C       -2.83348674      -7.19451720     -14.52955536
C       -2.08470358      -6.05361292     -14.79843446
Br      -1.27166617      -5.84021762     -16.49248482
C       -1.93364814      -5.05958960     -13.83064761
H       -2.62120785      -2.88702844      -0.12568194
H       -4.05163853      -4.31037195      -1.55992038
H       -4.03931355      -4.02611590      -4.00352786
H       -1.12290429      -0.86157864      -3.59372560
H       -3.28088955      -2.92845497      -5.87242766
H       -1.73330266       0.61055180      -7.91207846
H       -2.05433614       0.59288289     -10.35911466
H       -2.64437768      -1.49555679     -11.51908879
H       -2.51609704      -3.63802448      -7.77295319
H       -1.75609471      -3.39352079     -11.98342457
H       -3.78479999      -6.49022193     -11.35161406
H       -4.02282795      -8.22621454     -13.05952703
H       -2.95445047      -7.97171577     -15.27922967
H       -1.34690003      -4.17600588     -14.06605980
C       -1.79293003       1.79293003       1.79293003
C       -2.08253138       1.39127599       3.09357785
C       -2.88419994       2.19945504       3.89570750
C       -3.38895693       3.40361389       3.39393001
C       -3.10003288       3.81314714       2.08458018
C       -2.29709962       2.99332103       1.28643939
N       -3.64963602       5.04424129       1.65320499
C       -3.46826040       5.64185276       0.41925194
O       -2.77575829       5.21622820      -0.50023593
C       -4.15692883       6.94656370       0.20385753
C       -3.56497650       7.85090883      -0.69208911
C       -4.15775631       9.08434690      -0.95441079
C       -5.36000792       9.41887746      -0.33554559
C       -5.98513639       8.50618920       0.52805169
C       -5.37469380       7.27407918       0.81082569
C       -7.29385693       8.81934908       1.17529688
O       -7.51671133       8.34752263       2.28331367
N       -8.13909905       9.60804019       0.41662717
C       -9.39325644      10.13751589       0.78409500
C      -10.00334059       9.92113336       2.02057422
C      -11.24355115      10.50177997       2.31004318
C      -11.88009994      11.30873680       1.36872257
C      -11.27377507      11.52689721       0.13607869
Br     -12.11986854      12.63025584      -1.14575577
C      -10.04111092      10.94418987      -0.16141544
H       -1.69054694       0.45702030       3.48635099
H       -3.11681494       1.89274075       4.91237517
H       -4.01175580       4.01333911       4.04386241
H       -2.04590904       3.26511303       0.26718646
H       -4.18353212       5.55106453       2.34717553
H       -2.62909524       7.59315409      -1.18742002
H       -3.67872530       9.78079185      -1.63894924
H       -5.78400968      10.40130196      -0.52628837
H       -5.88182616       6.57467018       1.47057836
H       -7.84856771       9.81435314      -0.52988079
H       -9.54064784       9.30238954       2.78359860
H      -11.70927380      10.32296175       3.27633397
H      -12.83979640      11.75980146       1.60579805
H       -9.58612727      11.13269065      -1.12985221
C        1.79293003      -1.79293003       1.79293003
C        3.15785703      -1.87550876       1.53401943
C        3.95922835      -2.67797510       2.34215902
C        3.39216252      -3.39029890       3.40403941
C        2.01784613      -3.31042114       3.66949293
C        1.22158124      -2.50472679       2.85055200
N        1.52285792      -4.06230093       4.76192344
C        0.21513821      -4.10420783       5.21001906
O       -0.73166860      -3.47278218       4.75063698
C       -0.05749507      -4.97772254       6.38712260
C       -1.12144779      -4.61643168       7.22881233
C       -1.44459881      -5.39162551       8.34066573
C       -0.71666828      -6.54777525       8.61223282
C        0.32072981      -6.94437642       7.75427104
C        0.66155791      -6.14960389       6.64843687
C        1.09298832      -8.19929597       7.99621860
O        2.26760782      -8.22920618       7.65073362
N        0.36541262      -9.22222682       8.57612698
C        0.83008593     -10.48397829       9.00080310
C        2.15233882     -10.91375238       8.87895698
C        2.53248026     -12.17745980       9.34543424
C        1.59566522     -13.01835824       9.94353585
C        0.27747515     -12.59207566      10.06720016
Br      -1.00145079     -13.71734500      10.88847440
C       -0.10934434     -11.33645575       9.59677395
H        3.60118384      -1.32208778       0.71064662
H        5.02612100      -2.74961945       2.14619041
H        4.04318790      -4.00825787       4.01751154
H        0.15374470      -2.41052499       3.01393884
H        2.21750050      -4.57418680       5.29008487
H       -1.70177816      -3.71835251       7.01825497
H       -2.26163130      -5.08995634       8.99224287
H       -0.96243274      -7.11570637       9.50574963
H        1.45819948      -6.48141664       5.98745859
H       -0.62837969      -9.07233377       8.68908599
H        2.91459514     -10.28922257       8.42281826
H        3.56547910     -12.50117168       9.24191875
H        1.90250233     -13.99495648      10.30793710
H       -1.14416989     -11.02483163       9.70830398
C       -0.00445707       0.01189536      -1.78238275
H       -0.66409135       0.67374010      -2.43557963
H        0.65740317      -0.63156657      -2.45157240
C       -0.90989263      -0.90692880      -0.91072765
C        0.90977584       0.90977584      -0.90977584
C       -0.00465871       1.77757030       0.00794375
H       -0.66225468       2.44313916      -0.64384735
H        0.64322798       2.43503045       0.67728295
C       -1.78241447       0.00034974      -0.00472694
H       -2.45427497      -0.65498947       0.64260836
H       -2.43311707       0.67328779      -0.65473579
C       -0.91132561       0.90220522       0.91563759
C       -0.01476271      -0.02253852       1.78660255
H       -0.67934791      -0.69751639       2.42135241
H        0.63392994       0.61504881       2.47327442
C        0.01484550      -1.77751727      -0.01636693
H        0.67870853      -2.42144646      -0.68295456
H       -0.62264859      -2.45592969       0.64226336
C        1.78714474       0.01002794       0.00389507
H        2.44202412       0.67113390       0.66197326
H        2.45385902      -0.65136977      -0.64189061
C        0.91606151      -0.90478549       0.90901405
