85
Properties=species:S:1:pos:R:3 pbc="F F F"
C        0.00000000       0.00000000       0.00000000
C        0.88333099       0.88333099      -0.88333099
C        0.57614201       2.23404887      -1.02655627
C        1.36603444       3.06445561      -1.82747412
C        2.46636272       2.48624851      -2.47189809
N        3.40143267       3.05201043      -3.30672902
H        3.41135470       4.02429419      -3.57811001
C        4.32125579       2.11833431      -3.72314536
C        5.42881339       2.25839511      -4.56805565
C        6.19898061       1.11809242      -4.81931264
C        5.86563200      -0.10510008      -4.24410489
Br       6.93167484      -1.62637030      -4.60737334
C        4.75678636      -0.23329734      -3.40146868
C        3.96666470       0.90437843      -3.13502374
C        2.79531267       1.13718994      -2.34498780
C        1.98487747       0.31708370      -1.53192719
H       -0.28484212       2.65815662      -0.51459901
H        1.12824407       4.11730670      -1.94029532
H        5.68720704       3.21285177      -5.01562657
H        7.06481556       1.19987779      -5.47229448
H        4.50206700      -1.18924895      -2.95617628
H        2.21932589      -0.73655664      -1.41640030
C       -0.88333099      -0.88333099      -0.88333099
C       -0.86976733      -2.26411527      -0.70286455
C       -1.66683168      -3.09526098      -1.49587152
C       -2.46986024      -2.48663929      -2.46800978
N       -3.33950640      -3.04572493      -3.37494080
H       -3.51986706      -4.03546306      -3.45842878
C       -3.93103695      -2.07846828      -4.15323023
C       -4.86720855      -2.20102849      -5.18702710
C       -5.29899810      -1.02610623      -5.81128133
C       -4.80807284       0.21324857      -5.40981254
Br      -5.41586165       1.78140887      -6.27822511
C       -3.87294441       0.32370919      -4.37572249
C       -3.42425841      -0.84891376      -3.73289469
C       -2.50162196      -1.10715322      -2.66871523
C       -1.68947360      -0.28687204      -1.85754272
H       -0.23639952      -2.71150514       0.05999114
H       -1.65762636      -4.17151230      -1.35670744
H       -5.24886572      -3.16812501      -5.49869466
H       -6.02594475      -1.09370786      -6.61733522
H       -3.49404445       1.29239245      -4.06734233
H       -1.69579957       0.79013523      -1.99350521
C       -0.88333099       0.88333099       0.88333099
C       -2.23906629       0.59024773       1.00743314
C       -3.06960170       1.38050190       1.80786057
C       -2.48635192       2.46665344       2.47150396
N       -3.05102653       3.39866658       3.31047902
H       -4.02622531       3.41678378       3.57074980
C       -2.11178834       4.30285277       3.74809435
C       -2.24898582       5.40236059       4.60391773
C       -1.10294023       6.15638252       4.87706292
C        0.12298087       5.81536283       4.31225485
Br       1.65203644       6.85951834       4.70519599
C        0.24827855       4.71466894       3.45856731
C       -0.89521175       3.94089397       3.16996114
C       -1.13222003       2.78134052       2.36392985
C       -0.31208517       1.97082486       1.55097834
H       -2.66702989      -0.25989626       0.48077988
H       -4.12635049       1.15366933       1.90582627
H       -3.20557288       5.66674353       5.04336898
H       -1.18240312       7.01568816       5.53889655
H        1.20637340       4.45392418       3.02144356
H        0.74546377       2.19428483       1.45034850
C        0.88333099      -0.88333099       0.88333099
C        2.26071561      -0.67856491       0.89746663
C        3.09177861      -1.47097794       1.69520763
C        2.48660119      -2.46771732       2.47019081
N        3.04644600      -3.38006051       3.33366561
H        4.03421089      -3.44944328       3.53010472
C        2.08299302      -4.18551525       3.89422720
C        2.20754116      -5.23349104       4.81423194
C        1.03653887      -5.88574578       5.21410101
C       -0.20099344      -5.49732008       4.70831016
Br      -1.76384549      -6.40365338       5.27286999
C       -0.31346918      -4.44885843       3.78956845
C        0.85519946      -3.77777572       3.37309168
C        1.11055631      -2.69301691       2.47391718
C        0.29029500      -1.88198614       1.66160722
H        2.70546824       0.10312536       0.28557064
H        4.16538286      -1.31289735       1.70756588
H        3.17321182      -5.53495598       5.20751758
H        1.10575137      -6.70329017       5.92794629
H       -1.28071581      -4.15075659       3.39895356
H       -0.78407159      -2.03682815       1.64641300
