106
Properties=species:S:1:pos:R:3 pbc="F F F"
C        1.79323501       1.79323501      -1.79323501
C        1.48604603       3.14395289      -1.93646030
C        2.27593847       3.97435964      -2.73737814
C        3.37626674       3.39615253      -3.38180211
N        4.31133669       3.96191446      -4.21663305
H        4.32125873       4.93419821      -4.48801403
C        5.23115982       3.02823834      -4.63304938
C        6.33871741       3.16829914      -5.47795967
C        7.10888464       2.02799644      -5.72921666
C        6.77553602       0.80480395      -5.15400891
Br       7.84157886      -0.71646627      -5.51727737
C        5.66669038       0.67660669      -4.31137271
C        4.87656872       1.81428245      -4.04492776
C        3.70521669       2.04709396      -3.25489183
C        2.89478149       1.22698772      -2.44183122
H        0.62506191       3.56806065      -1.42450303
H        2.03814810       5.02721072      -2.85019935
H        6.59711106       4.12275580      -5.92553060
H        7.97471959       2.10978182      -6.38219850
H        5.41197102      -0.27934492      -3.86608031
H        3.12922992       0.17334738      -2.32630432
C       -1.79323501      -1.79323501      -1.79323501
C       -1.68221701      -3.17862841      -1.70561381
C       -2.47690079      -4.00988540      -2.50089006
C       -3.37860198      -3.39658899      -3.37903042
N       -4.26996130      -3.95464117      -4.26528173
H       -4.39375322      -4.94705417      -4.40266357
C       -4.97045068      -2.98222113      -4.93977573
C       -5.96350317      -3.10207724      -5.91939581
C       -6.50759908      -1.92183508      -6.43666358
C       -6.06897476      -0.68001436      -5.98535976
Br      -6.82885675       0.89534885      -6.70888206
C       -5.07619183      -0.57229518      -5.00618276
C       -4.51418387      -1.75028194      -4.47131311
C       -3.50900041      -2.01243682      -3.48576525
C       -2.69742063      -1.19212861      -2.67405120
H       -0.97330438      -3.62959835      -1.01472286
H       -2.39182828      -5.08972665      -2.43400324
H       -6.30424833      -4.07110356      -6.27004557
H       -7.28064111      -1.98724579      -7.19881301
H       -4.73850817       0.39833288      -4.65853111
H       -2.77946088      -0.11154265      -2.73787810
C       -1.79323501       1.79323501       1.79323501
C       -3.11083920       1.41581988       2.03980015
C       -3.94044438       2.20401238       2.84321950
C       -3.39580978       3.37553984       3.38287177
N       -3.96898617       4.32633410       4.19456393
H       -4.92205174       4.29549899       4.52592024
C       -3.07238988       5.32479459       4.49526307
C       -3.23185611       6.47350643       5.27961367
C       -2.12976054       7.32470175       5.41163546
C       -0.92429621       7.02895030       4.78110237
Br       0.54524071       8.20470697       4.98292370
C       -0.77642640       5.87838391       3.99985947
C       -1.87557312       5.00655146       3.85365435
C       -2.08027261       3.77558060       3.15134926
C       -1.26036035       2.96555678       2.33768331
H       -3.50923764       0.50031250       1.60807545
H       -4.96750686       1.91153060       3.03652072
H       -4.17244022       6.70247973       5.77047751
H       -2.22726926       8.22388212       6.01554853
H        0.16554589       5.65331133       3.51094097
H       -0.23243417       3.25453875       2.14190870
C        1.79323501      -1.79323501       1.79323501
C        3.15636104      -1.52387063       1.88622755
C        3.98707665      -2.31470462       2.68589497
C        3.39634168      -3.37684334       3.38103637
N        3.95936793      -4.30357394       4.22694233
H        4.93885662      -4.33545927       4.46915508
C        3.01186390      -5.18124452       4.69933912
C        3.14474407      -6.26691288       5.57331927
C        1.99017924      -6.99360388       5.88231462
C        0.76029373      -6.63985247       5.33420268
Br      -0.78029874      -7.64699396       5.77569474
C        0.63937224      -5.55318607       4.46211146
C        1.79145772      -4.80699055       4.13733066
C        2.03472913      -3.66752411       3.30494924
C        1.21455111      -2.85687011       2.49217922
H        3.59005565      -0.69211078       1.33545916
H        5.04957951      -2.10633638       2.75964228
H        4.10443248      -6.54125483       5.99971016
H        2.06614356      -7.84169410       6.55886224
H       -0.32184719      -5.28240844       4.03814516
H        0.15126074      -3.06190168       2.41571921
C       -0.00445707       0.01189536      -1.78238275
H       -0.66409135       0.67374010      -2.43557963
H        0.65740317      -0.63156657      -2.45157240
C       -0.90989263      -0.90692880      -0.91072765
C        0.90977584       0.90977584      -0.90977584
C       -0.00465871       1.77757030       0.00794375
H       -0.66225468       2.44313916      -0.64384735
H        0.64322798       2.43503045       0.67728295
C       -1.78241447       0.00034974      -0.00472694
H       -2.45427497      -0.65498947       0.64260836
H       -2.43311707       0.67328779      -0.65473579
C       -0.91132561       0.90220522       0.91563759
C       -0.01476271      -0.02253852       1.78660255
H       -0.67934791      -0.69751639       2.42135241
H        0.63392994       0.61504881       2.47327442
C        0.01484550      -1.77751727      -0.01636693
H        0.67870853      -2.42144646      -0.68295456
H       -0.62264859      -2.45592969       0.64226336
C        1.78714474       0.01002794       0.00389507
H        2.44202412       0.67113390       0.66197326
H        2.45385902      -0.65136977      -0.64189061
C        0.91606151      -0.90478549       0.90901405
