114
Properties=species:S:1:pos:R:3 pbc="F F F"
C        1.79323501       1.79323501      -1.79323501
C        1.48604603       3.14395289      -1.93646030
C        2.27593847       3.97435964      -2.73737814
C        3.37626674       3.39615253      -3.38180211
N        4.31133669       3.96191446      -4.21663305
H        4.32125873       4.93419821      -4.48801403
C        5.23115982       3.02823834      -4.63304938
C        6.33871741       3.16829914      -5.47795967
C        7.10888464       2.02799644      -5.72921666
C        6.77553602       0.80480395      -5.15400891
C        5.66669038       0.67660669      -4.31137271
C        4.87656872       1.81428245      -4.04492776
C        3.70521669       2.04709396      -3.25489183
C        2.89478149       1.22698772      -2.44183122
H        0.62506191       3.56806065      -1.42450303
H        2.03814810       5.02721072      -2.85019935
H        6.59711106       4.12275580      -5.92553060
H        7.97471959       2.10978182      -6.38219850
H        5.41197102      -0.27934492      -3.86608031
H        3.12922992       0.17334738      -2.32630432
C        7.58655960      -0.35254730      -5.43037612
C        8.26579185      -1.32182898      -5.66183365
Br       9.36405295      -2.88907546      -6.03608091
C       -1.79323501      -1.79323501      -1.79323501
C       -1.83156704      -3.16694946      -1.56794272
C       -2.62989914      -3.99792310      -2.35985401
C       -3.38038366      -3.39646351      -3.37737422
N       -4.23846761      -3.95712750      -4.29428909
H       -4.44895186      -4.94276212      -4.35175700
C       -4.77197670      -2.99778022      -5.12269062
C       -5.67785919      -3.12447361      -6.18264343
C       -6.04984458      -1.95770268      -6.85855049
C       -5.53106801      -0.72213834      -6.48114253
C       -4.62664061      -0.60748804      -5.42054112
C       -4.23829979      -1.77188799      -4.72559115
C       -3.35962012      -2.02413356      -3.62344880
C       -2.54716899      -1.20389370      -2.81253775
H       -1.23842745      -3.60885545      -0.77034269
H       -2.66109397      -5.06866977      -2.18579443
H       -6.08130277      -4.08860465      -6.47549004
H       -6.75224539      -2.02865355      -7.68580097
H       -4.22579223       0.35820738      -5.13112155
H       -2.51317604      -0.13237804      -2.98332755
C       -5.93184495       0.46248823      -7.19503169
C       -6.26749564       1.45461298      -7.79291387
Br      -6.81021441       3.05879479      -8.75963877
C       -1.79323501       1.79323501       1.79323501
C       -3.16634080       1.56490306       1.83521536
C       -3.99729962       2.35674005       2.63363658
C       -3.39645656       3.37733761       3.38042721
N       -3.95725637       4.29492949       4.23769834
H       -4.94253770       4.35063296       4.45030031
C       -2.99858993       5.12672913       4.76712847
C       -3.12563903       6.18845556       5.67088162
C       -1.95956980       6.86786521       6.03866273
C       -0.72433185       6.49208884       5.51792818
C       -0.60932099       5.42968971       4.61565908
C       -1.77301304       4.73120531       4.23156058
C       -2.02474268       3.62648870       3.35597110
C       -1.20450638       2.81559537       2.54349868
H       -3.60777474       0.76494701       1.24490384
H       -5.06757240       2.18031419       2.66767158
H       -4.08951473       6.48002591       6.07585682
H       -2.03080892       7.69655303       6.73933796
H        0.35611716       5.14155587       4.21326770
H       -0.13346352       2.98874683       2.50667127
C        0.45957181       7.20958678       5.91437344
C        1.45109112       7.81049130       6.24639635
Br       3.05429399       8.78210308       6.78324930
C        1.79323501      -1.79323501       1.79323501
C        3.17532493      -1.62462079       1.76651350
C        4.00650237      -2.41791746       2.56325642
C        3.39655770      -3.37805642       3.37960727
N        3.95535160      -4.28234761       4.25218500
H        4.94584754      -4.37271545       4.42490799
C        2.98663388      -5.04738704       4.85842662
C        3.10843025      -6.07426804       5.80227792
C        1.93200231      -6.68486491       6.24923052
C        0.69194779      -6.27703433       5.76536676
C        0.58226146      -5.24995413       4.82245418
C        1.75640318      -4.62090777       4.35846798
C        2.01575001      -3.56676600       3.42468647
C        1.19546120      -2.75552436       2.61261488
H        3.62372783      -0.87095176       1.12294601
H        5.08377034      -2.28797997       2.54380786
H        4.07607423      -6.39091194       6.17841129
H        1.99898498      -7.48531423       6.98240069
H       -0.38697341      -4.93656071       4.44911911
H        0.11743983      -2.88227831       2.62916348
C       -0.50262763      -6.92363347       6.24338257
C       -1.50308455      -7.46516025       6.64372082
Br      -3.12073876      -8.34076326       7.29103390
C       -0.00445707       0.01189536      -1.78238275
H       -0.66409135       0.67374010      -2.43557963
H        0.65740317      -0.63156657      -2.45157240
C       -0.90989263      -0.90692880      -0.91072765
C        0.90977584       0.90977584      -0.90977584
C       -0.00465871       1.77757030       0.00794375
H       -0.66225468       2.44313916      -0.64384735
H        0.64322798       2.43503045       0.67728295
C       -1.78241447       0.00034974      -0.00472694
H       -2.45427497      -0.65498947       0.64260836
H       -2.43311707       0.67328779      -0.65473579
C       -0.91132561       0.90220522       0.91563759
C       -0.01476271      -0.02253852       1.78660255
H       -0.67934791      -0.69751639       2.42135241
H        0.63392994       0.61504881       2.47327442
C        0.01484550      -1.77751727      -0.01636693
H        0.67870853      -2.42144646      -0.68295456
H       -0.62264859      -2.45592969       0.64226336
C        1.78714474       0.01002794       0.00389507
H        2.44202412       0.67113390       0.66197326
H        2.45385902      -0.65136977      -0.64189061
C        0.91606151      -0.90478549       0.90901405
