85
Properties=species:S:1:pos:R:3 pbc="F F F"
C        0.00000000       0.00000000       0.00000000
C        0.87186585       0.87186585      -0.87186585
C        2.13372002       0.51812024      -1.27735265
C        2.71323602       1.53420034      -2.09536334
C        1.86287938       2.60901203      -2.27740493
C        2.07342104       3.81127730      -3.04477947
N        3.18855362       3.99493971      -3.67832072
C        3.31454800       5.17980330      -4.41459718
C        3.39750142       5.10872494      -5.80626854
C        3.56344165       6.26782506      -6.56858741
C        3.65573570       7.51174145      -5.93782457
Br       3.88282503       9.03915409      -7.04264644
C        3.58692598       7.58910255      -4.54253169
Cl       3.69746235       9.08510047      -3.68445949
C        3.42433306       6.42325290      -3.78588142
S        0.38174926       2.38790337      -1.44881203
H        2.62380999      -0.41106632      -1.01354510
H        3.70255817       1.48053926      -2.53646322
H        1.25749565       4.55837564      -3.07868034
H        3.34164289       4.14078755      -6.29899080
H        3.62728161       6.18647852      -7.65101192
H        3.39505028       6.47837866      -2.70077362
C       -0.87186585      -0.87186585      -0.87186585
C       -2.14033434      -0.52578248      -1.26307610
C       -2.71812597      -1.53972973      -2.08494401
C       -1.85999363      -2.60530592      -2.28399679
C       -2.06675177      -3.80259359      -3.06013245
N       -3.18580565      -3.99056677      -3.68544164
C       -3.30790016      -5.16997716      -4.43107117
C       -3.40382800      -5.08739415      -5.82127276
C       -3.56632315      -6.24116855      -6.59236242
C       -3.64206358      -7.49135785      -5.97188030
Br      -3.86550270      -9.01094486      -7.08817800
C       -3.56019090      -7.58038054      -4.57798878
Cl      -3.64993583      -9.08479394      -3.73229254
C       -3.40115250      -6.41983696      -3.81247791
S       -0.37356865      -2.37835649      -1.46653951
H       -2.63622072       0.39665890      -0.98672695
H       -3.71175916      -1.49097448      -2.51682701
H       -1.24461667      -4.54209136      -3.10784362
H       -3.36086609      -4.11470052      -6.30585463
H       -3.64048385      -6.15086984      -7.67341836
H       -3.36175320      -6.48424736      -2.72820199
C       -0.87186585       0.87186585       0.87186585
C       -0.55579530       2.16315728       1.21024034
C       -1.56697438       2.73884389       2.03698144
C       -2.60578477       1.86035777       2.28315381
C       -3.80812886       2.07096101       3.05038793
N       -4.02255797       3.21013304       3.62912304
C       -5.21923438       3.34535733       4.34435678
C       -6.18723182       4.24018870       3.88507438
C       -7.37526228       4.42873353       4.59585832
C       -7.59919877       3.72407015       5.78203281
Br      -9.23666114       4.03714641       6.69081800
C       -6.62753984       2.83561260       6.25540777
Cl      -6.82291641       1.92991339       7.71419251
C       -5.43871003       2.65506421       5.53969314
S       -2.34385965       0.34733587       1.52726913
H        0.34148121       2.67818006       0.88958992
H       -1.54107826       3.74986008       2.42862231
H       -4.53466196       1.23896706       3.12092262
H       -6.00918203       4.80150586       2.97073335
H       -8.11321450       5.13272948       4.21882806
H       -4.67221236       1.98380907       5.91818112
C        0.87186585      -0.87186585       0.87186585
C        0.53309998      -2.14633226       1.24976067
C        1.55025111      -2.72675002       2.06579857
C        2.61583494      -1.86862395       2.26483745
C        3.83140433      -2.09036706       3.00770642
N        4.03247330      -3.22015515       3.60918561
C        5.24291357      -3.36768391       4.29835101
C        6.17724133      -4.29714255       3.83811102
C        7.37763839      -4.49785288       4.52436286
C        7.64796950      -3.77043339       5.68689884
Br       9.29942729      -4.10196296       6.56323531
C        6.71017797      -2.84691235       6.16146990
Cl       6.96360698      -1.91126346       7.59215186
C        5.50866583      -2.65429327       5.47050828
S        2.37195799      -0.36832399       1.47818267
H       -0.38407785      -2.64653303       0.96383360
H        1.50959881      -3.72702495       2.48293689
H        4.57941089      -1.27520635       3.03993439
H        5.96299283      -4.87585502       2.94257339
H        8.08872591      -5.22888547       4.14716066
H        4.76829294      -1.95523761       5.85067200
