198
Properties=species:S:1:pos:R:3 pbc="F F F"
C        1.79283471       1.79283471      -1.79283471
C        3.12771843       1.44229019      -1.99997036
C        3.93603002       2.24888127      -2.80161235
C        3.41014383       3.40207763      -3.38246072
O        4.27092422       4.15556092      -4.13779063
C        3.82293604       5.48708809      -4.55281987
H        3.58454936       5.39514372      -5.61714116
N        2.64280142       5.97233622      -3.83324076
N        2.04317970       7.23590533      -4.30313822
C        0.74103582       7.13078519      -3.95290082
C        0.41844352       5.78330798      -3.36693149
C        1.59012720       4.96934687      -3.89272286
H        1.36976765       4.67902458      -4.93376332
C        2.06844753       3.74996033      -3.17865884
C        1.25468658       2.93592675      -2.38431000
C       -0.22926141       8.21178493      -4.17136572
C       -1.56448525       8.08360509      -3.76509658
C       -2.49135693       9.11083204      -3.98002287
C       -2.09477105      10.29113300      -4.60428944
C       -0.77251476      10.44264181      -5.00960987
C        0.14793048       9.41221244      -4.79357079
C        5.04433388       6.37550624      -4.33162431
C        5.43943447       6.64518432      -3.00175233
C        6.56132762       7.42121520      -2.71124806
C        7.31877763       7.94997324      -3.74878911
C        6.94905330       7.70094912      -5.07096054
C        5.82236847       6.91598695      -5.36509503
H        3.54797598       0.55353379      -1.54041683
H        4.97843451       1.99470416      -2.96575110
H       -0.52876232       5.37199015      -3.72916871
H        0.39303808       5.83898846      -2.27207054
H        0.21420633       3.20323757      -2.22616119
H       -1.89680074       7.17781775      -3.26824802
H       -3.51923533       8.98224134      -3.65578675
H       -2.81104467      11.08895066      -4.76967628
H       -0.44473673      11.35730443      -5.49269920
H        1.17972973       9.54328793      -5.11346608
H        4.82866512       6.24995606      -2.19020848
H        6.82471525       7.61591294      -1.67678502
H        8.18685982       8.56413962      -3.53114212
H        7.54347470       8.12751807      -5.87381703
C        5.54087842       6.70276898      -6.76112563
C        5.30513050       6.52419893      -7.93030126
Br       4.92394606       6.23546627      -9.82075937
C       -1.79283471      -1.79283471      -1.79283471
C       -1.42760046      -3.12011253      -2.02226599
C       -2.22948656      -3.92598803      -2.83104906
C       -3.38306692      -3.40030065      -3.41131461
O       -4.10701116      -4.24578662      -4.21147799
C       -5.17555313      -3.66163264      -5.02565823
H       -6.10875812      -3.95403736      -4.53403876
N       -5.11967934      -2.20132142      -5.12737763
N       -6.24891120      -1.53214393      -5.80116812
C       -6.28252077      -0.30183010      -5.24037096
C       -5.28509385      -0.16048328      -4.12310586
C       -5.03407245      -1.62364015      -3.79448432
H       -5.85496980      -1.97863660      -3.14894914
C       -3.75193833      -2.06947168      -3.17565669
C       -2.95455545      -1.26433196      -2.35603592
C       -7.22519481       0.74008799      -5.66878242
C       -7.21062743       2.01648674      -5.09007574
C       -8.11404136       3.00746506      -5.49292167
C       -9.04899872       2.73791069      -6.48956336
C       -9.07678525       1.47971406      -7.08266573
C       -8.17287957       0.49375868      -6.67459282
C       -5.02438821      -4.34476574      -6.38231047
C       -3.89827087      -4.01716559      -7.17093466
C       -3.66759544      -4.61781659      -8.40837884
C       -4.56245574      -5.56482330      -8.89026094
C       -5.68375987      -5.90461359      -8.13258951
C       -5.91497964      -5.30407709      -6.88439371
H       -0.52409663      -3.53273430      -1.58509566
H       -1.95491382      -4.95783228      -3.02614367
H       -5.68657706       0.36587870      -3.25169818
H       -4.38645675       0.35903900      -4.47667935
H       -3.23944046      -0.23295109      -2.17121353
H       -6.48612493       2.25493840      -4.31807851
H       -8.07990361       3.98643857      -5.02532771
H       -9.74830133       3.50519244      -6.80447337
H       -9.79481505       1.25374657      -7.86419841
H       -8.20328477      -0.48591654      -7.14728244
H       -3.21171412      -3.25555513      -6.80156041
H       -2.79773405      -4.33000763      -8.98967153
H       -4.39605995      -6.02875396      -9.85732766
H       -6.38146440      -6.63942080      -8.52392460
C       -7.08923018      -5.74097637      -6.17456648
C       -8.07266501      -6.10687951      -5.58008618
Br      -9.66279595      -6.69851394      -4.61886181
C       -1.79283471       1.79283471       1.79283471
C       -2.93522144       1.25105337       2.38370416
C       -3.74440857       2.05610165       3.18601342
C       -3.41355197       3.39572020       3.38541001
O       -4.26861595       4.12881022       4.16684959
C       -4.08752901       5.58222911       4.19308588
H       -3.63183116       5.80109285       5.16391023
N       -3.22460932       6.09678701       3.12698207
N       -2.87220601       7.52849726       3.18151998
C       -1.67745115       7.59606105       2.55120963
C       -1.15574792       6.23544293       2.17749213
C       -1.96801359       5.36290458       3.12127876
H       -1.48552165       5.38410877       4.11292512
C       -2.26339517       3.93711019       2.79656134
C       -1.44579652       3.12783065       2.00129616
C       -0.97714283       8.86492827       2.31181815
C        0.24378629       8.90332721       1.62467550
C        0.91528128      10.11180643       1.40297283
C        0.37154339      11.30857361       1.86362117
C       -0.84294690      11.29462624       2.54216377
C       -1.50777049      10.08408120       2.76186201
C       -5.50786074       6.13499359       4.10861009
C       -6.20743732       5.98969725       2.88923655
C       -7.51925238       6.43809157       2.73644693
C       -8.16644371       7.04666693       3.80442934
C       -7.49751593       7.20477570       5.01867133
C       -6.17826220       6.74971342       5.17547483
H       -3.20673633       0.21281071       2.22237956
H       -4.64080616       1.65219485       3.64588876
H       -0.08502490       6.11713172       2.37023992
H       -1.35790281       6.02591423       1.12028005
H       -0.55327069       3.54530427       1.54503012
H        0.68417998       7.98599618       1.24744884
H        1.86024822      10.11014056       0.86890042
H        0.88935387      12.24608903       1.69084711
H       -1.28387000      12.21791086       2.90348603
H       -2.45791257      10.08628608       3.29228511
H       -5.68830668       5.53467738       2.04584560
H       -8.01799466       6.31928493       1.78013362
H       -9.18344044       7.40837776       3.69032337
H       -8.01045595       7.69062574       5.84372811
C       -5.58755838       6.94273584       6.47447881
C       -5.09284394       7.10439212       7.56239464
Br      -4.29293252       7.36577665       9.32146254
C        1.79283471      -1.79283471       1.79283471
C        1.33551564      -3.05271977       2.18174357
C        2.13771927      -3.85794960       2.99085477
C        3.38428817      -3.39764847       3.41274554
O        4.10488003      -4.23532586       4.22406987
C        5.29508431      -3.68807218       4.87968750
H        6.14644900      -4.11226776       4.33811749
N        5.37895536      -2.22600946       4.84341358
N        6.62319679      -1.61281194       5.34621452
C        6.71094917      -0.44614212       4.66763054
C        5.62602728      -0.30796923       3.63468647
C        5.21560391      -1.76309866       3.47349436
H        5.93511960      -2.25205143       2.79538452
C        3.84492163      -2.13514855       3.01699651
C        3.04606261      -1.33204624       2.19681448
C        7.77940397       0.53296670       4.90745198
C        7.82173848       1.74842091       4.21089885
C        8.84427487       2.67858724       4.43381034
C        9.84417859       2.40871276       5.36518556
C        9.81796118       1.21129174       6.07306748
C        8.79487380       0.28568948       5.84452939
C        5.21669193      -4.23038028       6.30439222
C        4.20610232      -3.72621816       7.15405064
C        4.04460089      -4.18958666       8.45960332
C        4.89466731      -5.17272434       8.95014833
C        5.90241674      -5.68576039       8.13278582
C        6.06340172      -5.22351082       6.81653790
H        0.36078566      -3.41258928       1.86855165
H        1.79310474      -4.83683066       3.30895437
H        5.98587855       0.09756581       2.68408380
H        4.81562046       0.32577775       4.01425438
H        3.40185799      -0.35371773       1.88802936
H        7.04955816       1.98689054       3.48659741
H        8.85167031       3.61094869       3.87807114
H       10.63600716       3.12919313       5.54076823
H       10.58575860       0.98667213       6.80618043
H        8.78421181      -0.64655307       6.40571887
H        3.55704975      -2.93716208       6.77461784
H        3.26434542      -3.76816510       9.08490269
H        4.78269605      -5.53076593       9.96867958
H        6.56703094      -6.44738527       8.53039360
C        7.11968902      -5.83372393       6.05136008
C        8.00432963      -6.34477741       5.41052366
Br       9.43471868      -7.17110766       4.37434535
C       -0.00445707       0.01189536      -1.78238275
H       -0.66409135       0.67374010      -2.43557963
H        0.65740317      -0.63156657      -2.45157240
C       -0.90989263      -0.90692880      -0.91072765
C        0.90977584       0.90977584      -0.90977584
C       -0.00465871       1.77757030       0.00794375
H       -0.66225468       2.44313916      -0.64384735
H        0.64322798       2.43503045       0.67728295
C       -1.78241447       0.00034974      -0.00472694
H       -2.45427497      -0.65498947       0.64260836
H       -2.43311707       0.67328779      -0.65473579
C       -0.91132561       0.90220522       0.91563759
C       -0.01476271      -0.02253852       1.78660255
H       -0.67934791      -0.69751639       2.42135241
H        0.63392994       0.61504881       2.47327442
C        0.01484550      -1.77751727      -0.01636693
H        0.67870853      -2.42144646      -0.68295456
H       -0.62264859      -2.45592969       0.64226336
C        1.78714474       0.01002794       0.00389507
H        2.44202412       0.67113390       0.66197326
H        2.45385902      -0.65136977      -0.64189061
C        0.91606151      -0.90478549       0.90901405
