129
Properties=species:S:1:pos:R:3 pbc="F F F"
C        0.00000000       0.00000000       0.00000000
C        0.88162330       0.88162330      -0.88162330
C        0.88172209       2.26275504      -0.69884650
C        1.68860619       3.07159520      -1.50660750
C        2.49841699       2.50448143      -2.50240827
C        2.49103021       1.11025125      -2.66357560
C        1.68347464       0.30014360      -1.85975252
C        3.35617700       3.31846332      -3.35721360
C        3.10090690       4.63037369      -3.69815613
S        4.34222318       5.22269560      -4.71661280
C        5.14075361       3.68991634      -4.64372299
N        6.31043487       3.55406057      -5.32090436
C        6.90457415       2.41419111      -5.17865324
C        8.19179080       2.12356066      -5.84374991
C        8.78306794       0.87198386      -5.64094713
C       10.00298972       0.57422778      -6.25042577
C       10.62863204       1.52381695      -7.05942285
C       10.03125349       2.76939424      -7.25716844
C        8.81340185       3.07777950      -6.65401285
N        4.50914787       2.78997610      -3.91627490
H        0.26443451       2.71977753       0.07000506
H        1.68517255       4.14451255      -1.33085124
H        3.11638745       0.64633343      -3.42428758
H        1.69167903      -0.77640781      -2.00605331
H        2.26895700       5.26119534      -3.42172277
H        6.49305529       1.59828345      -4.55396196
H        8.30572808       0.12493278      -5.01107462
H       10.46720634      -0.39671159      -6.09458744
H       11.57931153       1.28513515      -7.52959635
H        8.35248754       4.04989579      -6.80955167
C       10.68194292       3.74567997      -8.09207528
C       11.22689532       4.56331927      -8.79130975
Br      12.10803727       5.88537288      -9.92191276
C       -0.88162330      -0.88162330      -0.88162330
C       -1.41344864      -0.36761897      -2.06225602
C       -2.22201069      -1.17433473      -2.87046347
C       -2.50465531      -2.49852224      -2.50212914
C       -1.95101833      -2.99996430      -1.31387444
C       -1.14524388      -2.19503170      -0.50309517
C       -3.33843444      -3.36826594      -3.32515353
C       -4.34093823      -2.92570550      -4.16279300
S       -5.08096414      -4.25643013      -4.94413731
C       -4.02106813      -5.34120679      -4.11211802
N       -4.14636134      -6.66896705      -4.37007141
C       -3.28638027      -7.43252868      -3.77850955
C       -3.28947326      -8.89754234      -3.97208576
C       -2.32601871      -9.66322597      -3.30675425
C       -2.30097709     -11.04822757      -3.47843861
C       -3.23555228     -11.66478161      -4.31153794
C       -4.19380581     -10.89347992      -4.97053043
C       -4.22859833      -9.51001681      -4.80657906
N       -3.17918678      -4.74474533      -3.29146676
H       -1.20221751       0.65417664      -2.36616612
H       -2.60873833      -0.75553596      -3.79626204
H       -2.14974686      -4.02643538      -1.01082622
H       -0.73127897      -2.60431370       0.41426814
H       -4.68217271      -1.91846237      -4.35124004
H       -2.50200758      -7.04009861      -3.10319451
H       -1.59156939      -9.19351422      -2.65665186
H       -1.55307414     -11.64745285      -2.96455520
H       -3.20886393     -12.74378522      -4.44139388
H       -4.97582364      -8.91297124      -5.32314011
C       -5.15494336     -11.53499984      -5.82975497
C       -5.95989605     -12.07227277      -6.54935553
Br      -7.26143648     -12.94099765      -7.71288877
C       -0.88162330       0.88162330       0.88162330
C       -0.29379892       1.77484133       1.77468338
C       -1.10067548       2.58261612       2.58351728
C       -2.49931811       2.50075907       2.50522951
C       -3.07136534       1.60146812       1.59202361
C       -2.26736218       0.79114354       0.78486503
C       -3.36935733       3.33309146       3.32940513
C       -3.03079201       3.82647776       4.57216695
S       -4.32406707       4.74984142       5.20762308
C       -5.25776230       4.42957808       3.78705255
N       -6.49986471       4.97421700       3.71131809
C       -7.13044015       4.76528179       2.60169655
C       -8.48564652       5.30594624       2.36750861
C       -9.10731774       5.04751737       1.14116382
C      -10.38388507       5.55332545       0.89043275
C      -11.03597904       6.31391170       1.86198109
C      -10.40893142       6.56595652       3.08292822
C       -9.13470339       6.06597888       3.34451193
N       -4.64495287       3.66772970       2.90271629
H        0.78759522       1.85538012       1.84642208
H       -0.61738271       3.28507998       3.25807365
H       -4.15398519       1.52531528       1.50770798
H       -2.73333168       0.09965987       0.08833298
H       -2.12038783       3.69362848       5.13785881
H       -6.69731565       4.18013235       1.76785270
H       -8.60804531       4.45778501       0.37590515
H      -10.87057242       5.35636204      -0.06185227
H      -12.02951076       6.70565868       1.65887359
H       -8.64940217       6.26614970       4.29638313
C      -11.08615565       7.35230037       4.08124215
C      -11.65333095       8.01086334       4.91733006
Br     -12.57040543       9.07570396       6.26921351
C        0.88162330      -0.88162330       0.88162330
C        1.72146376      -1.82620717       0.29565269
C        2.52916933      -2.63507100       1.10256856
C        2.50055161      -2.50527402       2.49948105
C        1.65477802      -1.54089959       3.06917945
C        0.84457116      -0.73351713       2.26528246
C        3.33452687      -3.32814812       3.36917893
C        3.77185627      -4.59891164       3.05866881
S        4.71856906      -5.22186049       4.34110203
C        4.48178201      -3.75904776       5.23356316
N        5.07314249      -3.65982831       6.45242900
C        4.92580056      -2.52213208       7.04948586
C        5.52278070      -2.26058008       8.37574059
C        5.32974694      -1.00483295       8.96141903
C        5.88965551      -0.72823798      10.20974978
C        6.63899214      -1.70329576      10.86958394
C        6.82564384      -2.95360895      10.27856338
C        6.27126516      -3.24117170       9.03275734
N        3.72956683      -2.86968041       4.61615162
H        1.76042769      -1.93837911      -0.78459982
H        3.18986435      -3.35091338       0.61975860
H        1.62067625      -1.41628198       4.15005023
H        0.19498264       0.00327492       2.72961681
H        3.58667925      -5.19077662       2.17441925
H        4.35478251      -1.68331171       6.60720649
H        4.74938149      -0.23664767       8.45570631
H        5.74361047       0.24688207      10.66835379
H        7.07312423      -1.47999978      11.84091902
H        6.42057795      -4.21594584       8.57541121
C        7.60068038      -3.95545288      10.96356492
C        8.24977348      -4.79449717      11.53725370
Br       9.29930212      -6.15116082      12.46485995
