177
Properties=species:S:1:pos:R:3 pbc="F F F"
C        0.00000000       0.00000000       0.00000000
C        0.88276342       0.88276342      -0.88276342
C        1.23216240       2.16110249      -0.45045268
C        2.04172586       2.96690201      -1.25547013
C        2.51424318       2.50043404      -2.49430993
C        2.13570557       1.21354066      -2.91315025
C        1.32966303       0.40373741      -2.11115836
C        3.36611045       3.40877998      -3.38186614
H        3.88677537       4.12938035      -2.73473514
O        2.38890523       4.17317234      -4.15139642
C        2.71955255       4.50340786      -5.44089794
C        1.72147505       5.11212527      -6.20181157
C        1.97365666       5.46711082      -7.52757998
C        3.22893330       5.21523738      -8.08209215
C        4.23541270       4.61483830      -7.32583248
C        3.97875738       4.24728316      -6.00036272
C        5.00082685       3.64426303      -5.09580124
H        5.46425984       4.46760859      -4.52684671
C        6.10976831       2.75865258      -5.64401137
C        6.41075719       1.91604548      -4.43377360
N        5.40859271       1.95145780      -3.52724914
N        4.33816554       2.69839305      -4.20948319
C        7.62393856       1.10950799      -4.24610046
C        8.62981888       1.07233808      -5.22170927
C        9.78332264       0.29859869      -5.04609083
C        9.94833171      -0.45795004      -3.88877688
C        8.96014772      -0.43945892      -2.90896817
C        7.81172457       0.33818298      -3.08907299
H        0.88652427       2.53900421       0.50615419
H        2.31301050       3.96421036      -0.91913942
H        2.50658571       0.84300444      -3.86863004
H        1.07352913      -0.59261216      -2.45616747
H        0.74739106       5.29441734      -5.75858037
H        1.18811886       5.93158692      -8.11478318
H        5.21307836       4.42520270      -7.75825718
H        5.77867978       2.12785143      -6.47793910
H        6.96359608       3.36363435      -5.96543435
H        8.52080888       1.64445246      -6.13732234
H       10.54511789       0.28831724      -5.81893611
H       10.83909406      -1.06229949      -3.75250143
H        9.06880052      -1.02784126      -2.00367949
H        7.04281926       0.33927710      -2.31906780
C        3.48835760       5.58451780      -9.44954636
C        3.70562545       5.89379016     -10.59478925
Br       4.05692919       6.39385739     -12.44655015
C       -0.88276342      -0.88276342      -0.88276342
C       -1.69968667      -0.29608802      -1.84794288
C       -2.50408584      -1.10281060      -2.65720157
C       -2.49391660      -2.50102124      -2.51404930
C       -1.67220007      -3.06618801      -1.52400840
C       -0.86464040      -2.26469704      -0.71522136
C       -3.40948680      -3.36754437      -3.37972541
H       -3.60703715      -2.82709761      -4.31675611
O       -4.67060078      -3.39803841      -2.64483479
C       -5.40738189      -4.55344486      -2.70303160
C       -6.53688496      -4.61188534      -1.88664159
C       -7.33260757      -5.75819030      -1.87754960
C       -6.99461606      -6.83875920      -2.69288757
C       -5.87185415      -6.78552101      -3.51870832
C       -5.06671830      -5.64114562      -3.51853934
C       -3.87440553      -5.46771699      -4.39876860
H       -4.20971268      -4.94106637      -5.30793608
C       -3.03026364      -6.66078571      -4.82138291
C       -1.70707137      -5.98681137      -5.06669353
N       -1.63779754      -4.77227007      -4.47723203
N       -2.87336161      -4.69312430      -3.67955587
C       -0.58937088      -6.56873631      -5.82143982
C       -0.68536498      -7.84476647      -6.39373479
C        0.38207180      -8.40244627      -7.10763769
C        1.57020256      -7.69190478      -7.25745634
C        1.68906647      -6.42506862      -6.69365482
C        0.61781419      -5.87229291      -5.98450183
H       -1.71730508       0.78045694      -1.98252616
H       -3.14218481      -0.64536709      -3.40880837
H       -1.65327069      -4.15037302      -1.41457648
H       -0.22674285      -2.73575482       0.02541324
H       -6.78236255      -3.76598584      -1.25204038
H       -8.20406504      -5.79829569      -1.23212824
H       -5.61446265      -7.62573027      -4.15634533
H       -2.93530005      -7.41675097      -4.03241928
H       -3.44437383      -7.12739228      -5.72089867
H       -1.59651095      -8.42354991      -6.28252283
H        0.27960027      -9.39298352      -7.53898799
H        2.40067245      -8.12393655      -7.80603189
H        2.60972508      -5.85963247      -6.79473137
H        0.72496412      -4.88379288      -5.54233541
C       -7.81824793      -8.01992638      -2.68424745
C       -8.50803962      -9.00915389      -2.67701136
Br      -9.62337443     -10.60865111      -2.66531120
C       -0.88276342       0.88276342       0.88276342
C       -2.19734985       1.14558584       0.50078188
C       -3.00548373       1.94957370       1.30904058
C       -2.51004535       2.49128663       2.50765516
C       -1.17709563       2.22275426       2.86254659
C       -0.36686064       1.41774293       2.05995523
C       -3.39382629       3.40182723       3.36110305
H       -4.44376109       3.13587922       3.17125055
O       -3.19284885       4.73040091       2.79022422
C       -3.21473742       5.79753273       3.65158820
C       -2.88537298       7.04005707       3.10998183
C       -2.87119220       8.17398987       3.92316540
C       -3.19390717       8.05686615       5.27548951
C       -3.53281494       6.81981782       5.82345072
C       -3.53476658       5.68059817       5.01103851
C       -3.92799277       4.32314040       5.48975796
H       -5.00005225       4.19252193       5.26614096
C       -3.68484360       3.89756764       6.93002102
C       -3.59330669       2.40463070       6.76263888
N       -3.35757388       2.05009443       5.47963133
N       -3.11968041       3.33192369       4.79443769
C       -3.70531021       1.42388340       7.85035341
C       -3.91952586       1.82933108       9.17500928
C       -4.01982853       0.89519160      10.21299204
C       -3.90214331      -0.46572029       9.94273553
C       -3.68471959      -0.89042335       8.63536073
C       -3.58878352       0.04768829       7.60250874
H       -2.60416126       0.73089714      -0.41568410
H       -4.03004760       2.15575872       1.01055396
H       -0.79027362       2.63253291       3.79541367
H        0.65137454       1.21388264       2.37457633
H       -2.62899880       7.11372431       2.05766566
H       -2.60449160       9.13486240       3.49513496
H       -3.78900503       6.73263197       6.87490124
H       -2.74871798       4.29574443       7.34000789
H       -4.51873952       4.20463559       7.56928967
H       -4.00424251       2.88446712       9.41387406
H       -4.18486282       1.23824644      11.22926197
H       -3.97454829      -1.19138110      10.74612880
H       -3.58398506      -1.94651389       8.40716759
H       -3.41184240      -0.29598112       6.58530289
C       -3.18130786       9.22840749       6.11270641
C       -3.17075593      10.20957337       6.81387557
Br      -3.15369436      11.79603560       7.94760679
C        0.88276342      -0.88276342       0.88276342
C        0.64236502      -0.94701968       2.25433286
C        1.44682719      -1.75633206       3.06093875
C        2.49236652      -2.51272850       2.50389213
C        2.72259622      -2.41903050       1.12076976
C        1.91980186      -1.61430388       0.31045306
C        3.38919231      -3.36243287       3.40513139
H        2.81217611      -3.63947049       4.29924427
O        4.42593730      -2.43636181       3.85117487
C        5.68772710      -2.94190829       4.03422296
C        6.69092249      -2.01789397       4.32659543
C        8.00449247      -2.45004965       4.51380534
C        8.30439114      -3.80892141       4.41295028
C        7.30594249      -4.74066707       4.12947392
C        5.99105742      -4.30615071       3.92919513
C        4.84571015      -5.22639835       3.66878262
H        4.37213757      -5.44633517       4.64024239
C        5.04639860      -6.53929224       2.92674142
C        3.67119680      -6.74028656       2.34909290
N        2.95110584      -5.59627646       2.33991734
N        3.91419865      -4.56643284       2.76541029
C        3.15562758      -8.00809718       1.81582225
C        3.94192077      -9.16858256       1.81336289
C        3.45320063     -10.37559863       1.29921290
C        2.16596405     -10.44097115       0.77222336
C        1.36946947      -9.29977373       0.76041378
C        1.86247832      -8.09791077       1.27859145
H       -0.16470306      -0.37890368       2.70517368
H        1.26039152      -1.80536895       4.13059981
H        3.52603767      -3.01032476       0.68185776
H        2.11251474      -1.58141626      -0.75684656
H        6.44324251      -0.96308280       4.39406346
H        8.78005529      -1.72291832       4.73151535
H        7.54123859      -5.79811359       4.05718606
H        5.79209844      -6.46664155       2.12573032
H        5.33779266      -7.33424398       3.62062814
H        4.95219671      -9.14183732       2.20854966
H        4.08494818     -11.25793472       1.30948833
H        1.78667417     -11.37398840       0.36863343
H        0.36630892      -9.33055199       0.34777785
H        1.23290530      -7.21059781       1.25766106
C        9.65994007      -4.25351746       4.60896423
C       10.79521229      -4.62586665       4.77312592
Br      12.63085146      -5.22792380       5.03856148
