190
Properties=species:S:1:pos:R:3 pbc="F F F"
C        1.79266745       1.79266745      -1.79266745
C        2.14206642       3.07100652      -1.36035670
C        2.95162988       3.87680603      -2.16537416
C        3.42414720       3.41033807      -3.40421395
C        3.04560959       2.12344468      -3.82305428
C        2.23956706       1.31364143      -3.02106239
C        4.27601448       4.31868401      -4.29177016
H        4.79667940       5.03928438      -3.64463916
O        3.29880925       5.08307636      -5.06130044
C        3.62945658       5.41331188      -6.35080197
C        2.63137907       6.02202929      -7.11171559
C        2.88356068       6.37701485      -8.43748400
C        4.13883732       6.12514141      -8.99199618
Br       4.47972838       6.61038659     -10.78887065
C        5.14531672       5.52474233      -8.23573650
C        4.88866140       5.15718718      -6.91026674
C        5.91073088       4.55416706      -6.00570526
H        6.37416386       5.37751261      -5.43675074
C        7.01967233       3.66855661      -6.55391539
C        7.32066122       2.82594950      -5.34367763
N        6.31849673       2.86136182      -4.43715316
N        5.24806956       3.60829708      -5.11938721
C        8.53384259       2.01941201      -5.15600449
C        9.53972291       1.98224210      -6.13161329
C       10.69322666       1.20850272      -5.95599486
C       10.85823573       0.45195398      -4.79868090
C        9.87005175       0.47044511      -3.81887219
C        8.72162860       1.24808701      -3.99897701
H        1.79642830       3.44890824      -0.40374984
H        3.22291452       4.87411438      -1.82904345
H        3.41648973       1.75290847      -4.77853406
H        1.98343315       0.31729186      -3.36607149
H        1.65729509       6.20432136      -6.66848439
H        2.09802288       6.84149095      -9.02468721
H        6.12298239       5.33510672      -8.66816121
H        6.68858380       3.03775545      -7.38784312
H        7.87350011       4.27353838      -6.87533837
H        9.43071291       2.55435649      -7.04722637
H       11.45502191       1.19822126      -6.72884013
H       11.74899808      -0.15239547      -4.66240545
H        9.97870455      -0.11793724      -2.91358352
H        7.95272329       1.24918113      -3.22897183
C       -1.79266745      -1.79266745      -1.79266745
C       -1.99697373      -1.44851922      -3.12793668
C       -2.80097097      -2.25691888      -3.93592023
C       -3.40112896      -3.41820050      -3.41936976
C       -3.19079003      -3.73483844      -2.06648008
C       -2.38604176      -2.93206011      -1.25616900
C       -4.31056864      -4.27077405      -4.30512595
H       -4.00251638      -4.12719561      -5.35089095
O       -5.62427230      -3.64828175      -4.17063201
C       -6.71972824      -4.47306342      -4.20077877
C       -7.95288689      -3.87821334      -3.93402373
C       -9.11459355      -4.65132799      -3.93213799
C       -9.03427643      -6.01738561      -4.20431287
Br     -10.61119408      -7.06321453      -4.20457701
C       -7.80648633      -6.61873279      -4.48057644
C       -6.63994255      -5.84613760      -4.47003517
C       -5.28759912      -6.38433816      -4.79866592
H       -5.11277121      -6.20320944      -5.87244656
C       -4.92156078      -7.82878873      -4.49179482
C       -3.42763402      -7.70919369      -4.35346063
N       -3.03633944      -6.43148698      -4.14918530
N       -4.30058331      -5.69510730      -3.98006324
C       -2.48257812      -8.83292802      -4.39375295
C       -2.92692280     -10.14974213      -4.57691337
C       -2.02706469     -11.22180584      -4.60885371
C       -0.66226960     -10.99404519      -4.45255583
C       -0.19941076      -9.69503370      -4.26492458
C       -1.10326842      -8.62811327      -4.23731092
H       -1.53664541      -0.56160144      -3.55083952
H       -2.96152061      -1.98787396      -4.97667778
H       -3.64611177      -4.63900907      -1.66281143
H       -2.22816716      -3.21736402      -0.22126533
H       -7.99811267      -2.81562001      -3.71636816
H      -10.06830770      -4.18171134      -3.71418199
H       -7.74773392      -7.68091512      -4.69760127
H       -5.36556610      -8.19174699      -3.55686929
H       -5.22240354      -8.48622142      -5.31375190
H       -3.98632514     -10.35539404      -4.69057659
H       -2.39989926     -12.23099488      -4.75118917
H        0.03667647     -11.82372261      -4.47196193
H        0.86002376      -9.49950871      -4.13486588
H       -0.73019229      -7.61759082      -4.08309314
C       -1.79266745       1.79266745       1.79266745
C       -2.50907914       2.84308502       1.22126548
C       -3.31861431       3.64798816       2.02720761
C       -3.42465897       3.40628151       3.40775874
C       -2.68100202       2.35004273       3.96106380
C       -1.87330612       1.54137123       3.15959353
C       -4.28310204       4.32040387       4.28296273
H       -5.07179834       4.75611741       3.65268719
O       -3.38645476       5.41538756       4.64134373
C       -3.53566192       5.97187234       5.88603617
C       -2.58401947       6.92038318       6.26072131
C       -2.65741465       7.52385590       7.51678899
C       -3.68962943       7.17720004       8.38914544
Br      -3.78921667       7.99920911      10.09055983
C       -4.65036289       6.23612715       8.01930550
C       -4.56968131       5.62158982       6.76484420
C       -5.57270416       4.64008012       6.25781892
H       -6.31630410       5.20299777       5.66912535
C       -6.31710350       3.71554317       7.20949766
C       -6.63408510       2.56991585       6.28628739
N       -5.85863635       2.57932104       5.17905432
N       -4.88552222       3.65469894       5.43553270
C       -7.63567457       1.52741317       6.54617135
C       -8.40118498       1.53192952       7.72046381
C       -9.35134899       0.53482023       7.97155502
C       -9.54901165      -0.49057351       7.05043249
C       -8.79675643      -0.51723197       5.87984458
C       -7.85150744       0.48369479       5.63349039
H       -2.44970071       3.04296494       0.15642073
H       -3.87611046       4.46794962       1.58201227
H       -2.76639177       2.15214371       5.02939678
H       -1.32883635       0.72150585       3.61645431
H       -1.78237097       7.17378991       5.57393996
H       -1.90718319       8.25369646       7.80332139
H       -5.45573656       5.97249362       8.69802014
H       -5.69496809       3.37364391       8.04557038
H       -7.21290998       4.20655977       7.60290710
H       -8.25909646       2.31390568       8.45929362
H       -9.92889231       0.56328923       8.88990177
H      -10.28125877      -1.26724916       7.24499845
H       -8.93271364      -1.31221106       5.15384825
H       -7.26448214       0.44848331       4.71791079
C        1.79266745      -1.79266745       1.79266745
C        2.14946156      -1.35636492       3.06760315
C        2.95345533      -2.16438881       3.87596593
C        3.40137548      -3.41650577       3.42081797
C        3.03929996      -3.82646012       2.12634848
C        2.23386379      -3.02414092       1.31626617
C        4.31345793      -4.27155877       4.30145194
H        4.11784173      -4.01106512       5.35169608
O        5.65718256      -3.78828739       3.99771611
C        6.67622376      -4.70620466       4.01114200
C        7.92533454      -4.25412117       3.58566825
C        9.01151257      -5.12971135       3.55683562
C        8.84063132      -6.45404126       3.96130232
Br      10.31559719      -7.63875987       3.92462855
C        7.59717951      -6.91225929       4.39635675
C        6.50499793      -6.03779355       4.41332385
C        5.14827837      -6.41726521       4.90505962
H        5.09063869      -6.12957756       5.96821095
C        4.63318324      -7.84210491       4.76685619
C        3.14855744      -7.59571404       4.74601686
N        2.85041925      -6.30916718       4.45742528
N        4.15157074      -5.71126014       4.11292297
C        2.11891797      -8.61868053       4.97166058
C        2.46436792      -9.95077933       5.23843105
C        1.48319428     -10.92742639       5.44710356
C        0.13421898     -10.58733754       5.38731410
C       -0.23153396      -9.27155028       5.11935273
C        0.75357213      -8.30000936       4.91511113
H        1.80807176      -0.39746488       3.44354973
H        3.23291763      -1.82364393       4.86951080
H        3.37604727      -4.80036427       1.77152072
H        1.95621367      -3.38076415       0.32981869
H        8.04058945      -3.22288186       3.26662953
H        9.97729223      -4.77158076       3.21532805
H        7.46848292      -7.94188105       4.71588635
H        4.95528307      -8.32345177       3.83544754
H        4.95226406      -8.45217593       5.61793686
H        3.50831088     -10.24404642       5.27993847
H        1.78016099     -11.95117885       5.65074347
H       -0.62813364     -11.34338771       5.54375400
H       -1.27790524      -8.98972555       5.06253052
H        0.45536955      -7.27592619       4.69958049
C       -0.00445707       0.01189536      -1.78238275
H       -0.66409135       0.67374010      -2.43557963
H        0.65740317      -0.63156657      -2.45157240
C       -0.90989263      -0.90692880      -0.91072765
C        0.90977584       0.90977584      -0.90977584
C       -0.00465871       1.77757030       0.00794375
H       -0.66225468       2.44313916      -0.64384735
H        0.64322798       2.43503045       0.67728295
C       -1.78241447       0.00034974      -0.00472694
H       -2.45427497      -0.65498947       0.64260836
H       -2.43311707       0.67328779      -0.65473579
C       -0.91132561       0.90220522       0.91563759
C       -0.01476271      -0.02253852       1.78660255
H       -0.67934791      -0.69751639       2.42135241
H        0.63392994       0.61504881       2.47327442
C        0.01484550      -1.77751727      -0.01636693
H        0.67870853      -2.42144646      -0.68295456
H       -0.62264859      -2.45592969       0.64226336
C        1.78714474       0.01002794       0.00389507
H        2.44202412       0.67113390       0.66197326
H        2.45385902      -0.65136977      -0.64189061
C        0.91606151      -0.90478549       0.90901405
