153
Properties=species:S:1:pos:R:3 pbc="F F F"
C        0.00000000       0.00000000       0.00000000
Cl      -0.60408260       7.92154383      -4.27731303
C        0.37605553       6.55415643      -3.67164223
C        1.85342373       6.83788390      -3.84131019
C        2.63302968       5.72071291      -3.18539577
O        3.07042257       5.86437641      -2.03919146
N        2.77117965       4.55477520      -3.89640333
N        2.36098041       4.39305424      -5.28222587
C        2.86610439       3.20977337      -5.68131719
C        3.79524475       2.59746796      -4.68011067
C        3.41286358       3.33884787      -3.40607545
H        4.30450065       3.62867806      -2.83552589
C        2.50534548       2.50022149      -2.50364113
C        3.06354060       1.74310335      -1.46164011
C        2.25599143       0.93725952      -0.65294531
C        0.88239978       0.88239978      -0.88239978
C        0.30791494       1.61833600      -1.91232351
C        1.11986932       2.41814332      -2.72134015
C        2.52688854       2.59324043      -6.96476807
C        3.38799106       1.66361282      -7.56390279
C        3.05189547       1.04483813      -8.77234803
C        1.84043002       1.34804307      -9.38778121
Br       1.37536470       0.50142377     -11.01370711
C        0.96929377       2.26834078      -8.81273759
C        1.31761640       2.88950255      -7.60983132
H        0.05640718       5.65744657      -4.20942469
H        0.12000114       6.41921533      -2.61528860
H        2.13265729       7.77725632      -3.34870172
H        2.13230446       6.94674115      -4.89441006
H        3.69304427       1.51062293      -4.59721615
H        4.83002072       2.83087231      -4.96049130
H        4.13442619       1.78236831      -1.27964263
H        2.70887640       0.36006667       0.14619518
H       -0.75973904       1.58252968      -2.10756003
H        0.67433167       2.98318930      -3.53934677
H        4.33796671       1.42446178      -7.09469435
H        3.74135770       0.33360870      -9.21528191
H        0.02022431       2.51185896      -9.27855436
H        0.63237746       3.60220984      -7.15556255
Cl      -8.00142494       0.54130507      -4.13465440
C       -6.43243613      -0.28039713      -3.88902092
C       -6.24112238      -1.38443660      -4.90705883
C       -4.84648156      -1.94598261      -4.74667419
O       -3.93568674      -1.55469040      -5.48361331
N       -4.64877408      -2.84505215      -3.72853195
N       -5.71817732      -3.40237744      -2.91570576
C       -5.15858653      -4.39765137      -2.20095706
C       -3.75329949      -4.70359775      -2.61592615
C       -3.36459896      -3.43310102      -3.36008691
H       -2.81836145      -3.66768335      -4.28265980
C       -2.50108699      -2.50602566      -2.50209546
C       -1.10221608      -2.55987561      -2.60619237
C       -0.29481148      -1.75109985      -1.80028492
C       -0.88239978      -0.88239978      -0.88239978
C       -2.26525420      -0.81631955      -0.75700071
C       -3.06793256      -1.63053025      -1.56088998
C       -5.86313092      -5.09665304      -1.12511308
C       -5.48390159      -6.39030642      -0.74129866
C       -6.13038492      -7.04856069       0.30986398
C       -7.16084603      -6.40863642       0.99322815
Br      -8.02665392      -7.28934541       2.42550375
C       -7.55580855      -5.12464607       0.63008248
C       -6.91083684      -4.47793083      -0.42818260
H       -6.41291841      -0.65012269      -2.86023733
H       -5.65245496       0.48258588      -3.98463599
H       -6.33233299      -0.99711080      -5.92917154
H       -6.99599082      -2.17100913      -4.80645571
H       -3.09046965      -4.93462530      -1.77578841
H       -3.75958006      -5.55988009      -3.30192417
H       -0.63976093      -3.23646589      -3.32021031
H        0.78410614      -1.80968584      -1.89716818
H       -2.73850937      -0.14873040      -0.04311090
H       -4.15137291      -1.59239201      -1.45310282
H       -4.68499489      -6.90037736      -1.27175059
H       -5.81874680      -8.05205654       0.58055502
H       -8.35444897      -4.61183997       1.15565131
H       -7.21353483      -3.47047089      -0.70614414
Cl      -7.69116934       4.65717006      -0.75356514
C       -6.39777841       3.94738958       0.25668619
C       -6.74104015       4.06512442       1.72645324
C       -5.69039613       3.32539901       2.52334322
O       -5.90384963       2.16894004       2.90120077
N       -4.50203449       3.97566281       2.74466087
N       -4.26133126       5.36924693       2.40568233
C       -3.08606260       5.69138954       2.97974282
C       -2.56119672       4.62360102       3.88802564
C       -3.33929261       3.40270648       3.41578780
H       -3.69422372       2.80758003       4.26690085
C       -2.50030623       2.50341038       2.50549151
C       -1.81574772       1.40450106       3.04803529
C       -1.00995054       0.59588647       2.24035924
C       -0.88239978       0.88239978       0.88239978
C       -1.54560207       1.96899981       0.32397257
C       -2.34556207       2.77746720       1.13632352
C       -2.39917507       6.95891980       2.72680218
C       -1.48457869       7.47674154       3.65418644
C       -0.79887418       8.66917745       3.40102999
C       -1.01921380       9.35017599       2.20686450
Br      -0.08198300      10.95448044       1.85403214
C       -1.92298762       8.85640924       1.27097528
C       -2.61139117       7.66907599       1.53648312
H       -5.46475411       4.45708426       0.00144007
H       -6.29756754       2.89817235      -0.04123482
H       -7.71282060       3.60422913       1.94156560
H       -6.81640474       5.10890486       2.04814607
H       -1.47547839       4.49566914       3.82973581
H       -2.82917129       4.86886820       4.92334484
H       -1.91182725       1.17786515       4.10674472
H       -0.48953171      -0.24782364       2.68103982
H       -1.45254340       2.20886509      -0.73105782
H       -2.85336969       3.63912950       0.70436855
H       -1.30982467       6.95602936       4.59126882
H       -0.10122080       9.04859239       4.14043512
H       -2.10228968       9.37389651       0.33445144
H       -3.31120780       7.27823183       0.80071023
Cl       3.21286416       0.04935594       8.43126604
C        2.90403259      -0.80607437       6.89174722
C        3.23239928      -2.27818366       7.02203487
C        2.81871639      -2.97491211       5.74550986
O        1.73110822      -3.55736036       5.68552186
N        3.67210523      -2.87516645       4.67508649
N        5.00128987      -2.28932454       4.74564610
C        5.59785257      -2.58476625       3.57457614
C        4.80532889      -3.53513801       2.73235649
C        3.41476528      -3.40391979       3.33910182
H        2.93666362      -4.38602645       3.44601454
C        2.50426184      -2.50486949       2.50007678
C        1.63960211      -3.07573402       1.55294793
C        0.83072725      -2.26854193       0.74692707
C        0.88239978      -0.88239978       0.88239978
C        1.73548440      -0.29411376       1.80897630
C        2.54595541      -1.10481186       2.60858552
C        6.88833480      -2.02088611       3.17567613
C        7.69922431      -2.67693937       2.23934298
C        8.91653290      -2.12453594       1.82801279
C        9.32799106      -0.90031724       2.34794599
Br      10.96578441      -0.14256480       1.78214637
C        8.54058247      -0.23036483       3.27942484
C        7.33005773      -0.79447732       3.69241522
H        3.49546475      -0.31110893       6.11670476
H        1.84602736      -0.65876561       6.64971210
H        2.67517975      -2.73372980       7.84970578
H        4.29322754      -2.44491327       7.23531486
H        4.83633900      -3.30124370       1.66330065
H        5.19034102      -4.55205316       2.87899015
H        1.59666245      -4.15630409       1.44347058
H        0.17045237      -2.73121474       0.02108078
H        1.79148174       0.78435555       1.92322448
H        3.22717904      -0.64558739       3.32410131
H        7.38991780      -3.63518000       1.83202505
H        9.52574395      -2.65843789       1.10606647
H        8.84616247       0.72601609       3.69049126
H        6.71007119      -0.26624222       4.41383644
