66
Properties=species:S:1:pos:R:3 pbc="F F F"
C        1.77989291       1.77989291      -1.77989291
S        1.48419529       3.48416759      -1.66923376
C        2.71200466       4.21831289      -2.65045212
O        2.80543032       5.44143714      -2.74368441
C        3.68425956       3.39773981      -3.42012153
C        3.70634348       2.06552079      -3.41902879
C        2.80863115       1.23003157      -2.67610572
Br       2.99987238      -0.61247941      -2.90275697
O        4.61676558       4.08936493      -4.18658498
H        4.46361077       1.57189261      -4.02551391
H        4.41650256       5.04144319      -4.04776605
C       -1.77989291      -1.77989291      -1.77989291
S       -2.56603221      -0.97388272      -3.09768171
C       -3.35917454      -2.23448347      -3.98711166
O       -3.97631757      -1.99109624      -5.02313805
C       -3.33101218      -3.64717140      -3.52393732
C       -2.70572388      -4.06217736      -2.42299182
C       -1.96601202      -3.21769944      -1.53105698
Br      -1.24367858      -4.03155111      -0.01492026
O       -4.01327919      -4.57447605      -4.30496024
H       -2.75710714      -5.12236968      -2.18154048
H       -4.39865978      -4.05923450      -5.04781752
C       -1.77989291       1.77989291       1.77989291
S       -2.55376909       0.97700990       3.10681765
C       -3.34906091       2.23815189       3.99355688
O       -3.95881970       1.99721545       5.03451672
C       -3.33173119       3.64827648       3.52211324
C       -2.71519301       4.06049738       2.41520267
C       -1.97575051       3.21514272       1.52387522
Br      -1.26686376       4.02435317      -0.00106698
O       -4.01484735       4.57614403       4.30172410
H       -2.77409324       5.11896285       2.16796120
H       -4.39296492       4.06299952       5.04974737
C        1.77989291      -1.77989291       1.77989291
S        2.43970588      -3.18644081       1.01144995
C        3.49410384      -3.89230796       2.19435787
O        4.15980017      -4.89421995       1.93653175
C        3.62122349      -3.32002974       3.56086767
C        2.96453414      -2.24114717       3.98521174
C        2.05023225      -1.47188237       3.19265383
Br       1.20034017      -0.04537059       4.04443919
O        4.48332341      -3.97469890       4.43469317
H        3.13506391      -1.91598140       5.00997199
H        4.84764379      -4.73235345       3.92571456
C       -0.00445707       0.01189536      -1.78238275
H       -0.66409135       0.67374010      -2.43557963
H        0.65740317      -0.63156657      -2.45157240
C       -0.90989263      -0.90692880      -0.91072765
C        0.90977584       0.90977584      -0.90977584
C       -0.00465871       1.77757030       0.00794375
H       -0.66225468       2.44313916      -0.64384735
H        0.64322798       2.43503045       0.67728295
C       -1.78241447       0.00034974      -0.00472694
H       -2.45427497      -0.65498947       0.64260836
H       -2.43311707       0.67328779      -0.65473579
C       -0.91132561       0.90220522       0.91563759
C       -0.01476271      -0.02253852       1.78660255
H       -0.67934791      -0.69751639       2.42135241
H        0.63392994       0.61504881       2.47327442
C        0.01484550      -1.77751727      -0.01636693
H        0.67870853      -2.42144646      -0.68295456
H       -0.62264859      -2.45592969       0.64226336
C        1.78714474       0.01002794       0.00389507
H        2.44202412       0.67113390       0.66197326
H        2.45385902      -0.65136977      -0.64189061
C        0.91606151      -0.90478549       0.90901405
