181
Properties=species:S:1:pos:R:3 pbc="F F F"
C        0.00000000       0.00000000       0.00000000
C        0.62374355      11.70883957       1.96413341
C        0.92391950      10.40839572       1.28507098
C        1.68081053      10.38081515       0.11102793
C        1.93285469       9.16841759      -0.54162100
C        1.43219432       7.95442778      -0.05082814
C        0.65722495       7.99804624       1.11487914
C        0.40175435       9.20771640       1.77460305
C        1.70226441       6.68544607      -0.73889616
N        2.39216601       6.61434986      -1.89935634
N        2.30757945       5.19178624      -2.27780398
C        3.37515827       4.64998366      -3.11569500
H        4.34780311       4.81899180      -2.63166774
O        3.27497543       3.21216364      -3.34953524
C        2.48467680       2.48421571      -2.49794086
C        2.27510034       1.14699207      -2.83469894
C        1.46959288       0.34265792      -2.02771300
C        0.88286095       0.88286095      -0.88286095
C        1.09737972       2.21582100      -0.53220027
C        1.89718516       3.02468081      -1.34664730
C        2.23540757       4.44307721      -1.03189853
H        3.20686959       4.44142040      -0.50970505
C        1.27440777       5.32737065      -0.25153678
C        3.42659833       5.25140686      -4.52113903
C        4.65213067       5.35577744      -5.20059307
C        4.70647559       5.86739598      -6.50001406
C        3.53184251       6.27108532      -7.13330747
Br       3.60604188       6.96615272      -8.89181644
C        2.30501057       6.16652913      -6.48400495
C        2.25579700       5.65264632      -5.18724737
H        1.47078566      12.39751588       1.87692698
H        0.43566879      11.56001944       3.03262094
H       -0.25872502      12.17267153       1.51280941
H        2.08312108      11.29558085      -0.31423559
H        2.52591503       9.16871703      -1.45403953
H        0.23223626       7.08498123       1.51908844
H       -0.21088250       9.19676486       2.67135778
H        2.73231780       0.74377055      -3.73294587
H        1.30443781      -0.69413825      -2.30255844
H        0.64585731       2.63129589       0.36338364
H        0.22332959       5.14258291      -0.50508156
H        1.41449659       5.19463215       0.82584775
H        5.56733838       5.03867498      -4.70803052
H        5.66463257       5.94614770      -7.00302754
H        1.38403857       6.48580703      -6.96045235
H        1.30342160       5.58211667      -4.66216730
C       -2.03459187       2.99120083     -11.32505867
C       -2.13578194       2.16728093     -10.07874322
C       -3.00525103       1.07519230     -10.02053902
C       -3.12421392       0.32566305      -8.84434240
C       -2.39055665       0.64683914      -7.69373274
C       -1.53855804       1.75647079      -7.75830479
C       -1.41309392       2.51083664      -8.93261041
C       -2.51802685      -0.14503855      -6.46354124
N       -3.37694748      -1.18245649      -6.34646825
N       -3.25884441      -1.58530343      -4.93302183
C       -3.57204246      -2.97236752      -4.59642695
H       -2.94983247      -3.64936048      -5.19926970
O       -3.32135073      -3.31577501      -3.19954856
C       -2.49656063      -2.48928969      -2.48098306
C       -2.40042388      -2.74346609      -1.11290138
C       -1.59397232      -1.93716742      -0.30882406
C       -0.88286095      -0.88286095      -0.88286095
C       -0.96371132      -0.62950800      -2.25218167
C       -1.77987857      -1.43204400      -3.05659071
C       -1.89176124      -1.28206571      -4.53655636
H       -1.17731078      -1.98718047      -4.99350379
C       -1.72063699       0.07330856      -5.20598676
C       -5.03910541      -3.34726835      -4.81277046
C       -5.38865789      -4.66441700      -5.15542629
C       -6.72830213      -5.02816757      -5.31741593
C       -7.73013453      -4.07704064      -5.12906013
Br      -9.54382960      -4.56923394      -5.35094751
C       -7.40820954      -2.76898521      -4.77834991
C       -6.06894790      -2.41135504      -4.61538774
H       -2.13818990       2.36278300     -12.21596766
H       -1.06065201       3.48759536     -11.39001064
H       -2.81950227       3.75369307     -11.33532789
H       -3.60221624       0.79163321     -10.88235449
H       -3.80610791      -0.52208648      -8.82047720
H       -0.96688105       2.05389414      -6.88514214
H       -0.74663929       3.36841318      -8.93629846
H       -2.96612640      -3.56273822      -0.68016962
H       -1.53256865      -2.13648406       0.75619471
H       -0.40317609       0.18671690      -2.69731037
H       -2.14764510       0.89577899      -4.61912795
H       -0.66304468       0.27880682      -5.39904314
H       -4.60799898      -5.40640909      -5.29963581
H       -6.97502508      -6.04908980      -5.58969292
H       -8.17640142      -2.01575742      -4.63813911
H       -5.80355560      -1.38616596      -4.35798400
C       -6.38821006       8.79502316      -4.81478350
C       -5.85450023       7.91766963      -3.72492562
C       -6.13466862       8.20192809      -2.38599896
C       -5.60791442       7.40097962      -1.36600077
C       -4.78235595       6.30377687      -1.64868257
C       -4.49174557       6.04210714      -2.99346067
C       -5.01646127       6.83857116      -4.02016474
C       -4.23483632       5.46584491      -0.57407458
N       -4.44291389       5.72699894       0.73595939
N       -3.61826574       4.72414988       1.43475405
C       -4.02687865       4.33210619       2.78185210
H       -5.06491241       3.97012486       2.76342539
O       -3.22470716       3.25571143       3.35625572
C       -2.48057004       2.49027574       2.49598760
C       -1.60139114       1.57724646       3.07815374
C       -0.79684789       0.77206016       2.27105575
C       -0.88286095       0.88286095       0.88286095
C       -1.76836557       1.78456973       0.29246569
C       -2.56795464       2.59861292       1.10194572
C       -3.58569313       3.55215496       0.57253522
H       -4.55690996       3.02950383       0.57158124
C       -3.40456707       4.22739775      -0.77864963
C       -3.92860692       5.45811888       3.81241842
C       -4.80855120       5.49254600       4.90740398
C       -4.70335171       6.49418345       5.87635047
C       -3.70978155       7.46542389       5.76102985
Br      -3.56918177       8.82301845       7.07181084
C       -2.81979628       7.44483281       4.69091557
C       -2.92751411       6.44098170       3.72719488
H       -7.38709992       9.16564763      -4.56137299
H       -6.47662972       8.24260191      -5.75616433
H       -5.72142898       9.64891964      -4.96921153
H       -6.76155562       9.04635499      -2.11497309
H       -5.83953457       7.63878385      -0.32964683
H       -3.84033105       5.21528268      -3.25748468
H       -4.75893512       6.60461698      -5.04902752
H       -1.54057604       1.50860539       4.15985281
H       -0.10890603       0.07114403       2.73280794
H       -1.83872735       1.86306274      -0.78802053
H       -2.36107290       4.49509780      -0.98517664
H       -3.77934647       3.58805424      -1.58411972
H       -5.58127065       4.73403456       4.99873867
H       -5.39832185       6.50596876       6.70951719
H       -2.04793891       8.19959698       4.58276206
H       -2.24761244       6.42446344       2.87562968
C       11.48210791      -1.55088065      -2.66453886
C       10.21322141      -1.72201423      -1.88799140
C       10.14865641      -2.63013974      -0.82819840
C        8.95290494      -2.81411569      -0.12412736
C        7.78900695      -2.10862295      -0.46017966
C        7.86112146      -1.21712931      -1.53785872
C        9.05492103      -1.02655572      -2.24660906
C        6.53820306      -2.30436144       0.28404214
N        6.41629794      -3.20202771       1.28754657
N        4.98695613      -3.14515807       1.64505547
C        4.61526312      -3.51713539       3.00843843
H        5.17332142      -2.89890030       3.72624093
O        3.19987528      -3.32522421       3.31157482
C        2.48124376      -2.49682953       2.48876009
C        1.10293595      -2.45525189       2.69860350
C        0.29885078      -1.64872636       1.89238666
C        0.88286095      -0.88286095       0.88286095
C        2.26185095      -0.90915692       0.67439312
C        3.06672860      -1.72524591       1.47653876
C        4.55385668      -1.78241499       1.37411163
H        4.96206363      -1.07788746       2.11804395
C        5.26184991      -1.54233111       0.04913417
C        4.86950918      -4.98823073       3.34140431
C        5.17987235      -5.37143090       4.65719793
C        5.37579891      -6.71668397       4.98140275
C        5.25401122      -7.69079909       3.99142498
Br       5.52185076      -9.51199228       4.43016802
C        4.93625356      -7.33577745       2.68351365
C        4.73916451      -5.99115038       2.36537580
H       12.35458845      -1.64632188      -2.00953577
H       11.52991918      -0.55875294      -3.12560482
H       11.54492718      -2.30820839      -3.45199848
H       11.02062840      -3.20743966      -0.53513054
H        8.92431771      -3.52529765       0.69905622
H        6.97915157      -0.66498840      -1.84601092
H        9.06421567      -0.33112946      -3.08082056
H        0.66289187      -3.06304192       3.48310044
H       -0.77371303      -1.62983010       2.05674093
H        2.71435439      -0.30621963      -0.10680446
H        4.71787187      -1.96003175      -0.80690956
H        5.42501784      -0.47241764      -0.11415449
H        5.27218470      -4.61248488       5.42937431
H        5.62220181      -6.98929207       6.00231392
H        4.84787984      -8.08174929       1.90066882
H        4.50711534      -5.69925062       1.34133961
