170
Properties=species:S:1:pos:R:3 pbc="F F F"
C        1.79148683       1.79148683      -1.79148683
C        2.63382015       2.73020252      -1.21193770
C        3.43085205       3.56562795      -2.01611881
C        4.31172240       4.57056587      -1.31837196
C        3.35582973       3.46714254      -3.42982257
N        4.10307556       4.40965894      -4.18544887
C        3.74194151       4.95670109      -5.40809915
O        2.69471314       4.75125215      -6.01069903
C        4.73581882       5.91733372      -5.98629741
C        6.09080644       5.55107740      -5.91967103
C        7.05850026       6.35939522      -6.49541953
C        6.67888233       7.52306660      -7.16123352
C        5.32547536       7.92764704      -7.26610036
C        4.91728265       9.09968620      -7.96072225
Br       6.15076873      10.24578209      -8.86080633
C        3.57481230       9.47983226      -8.03401276
C        2.60893904       8.71059842      -7.40792729
C        2.98405897       7.55467671      -6.72501450
C        4.33119451       7.11648059      -6.64950026
C        2.57720580       2.43503882      -4.00301383
C        2.57905655       2.06536897      -5.46342425
C        1.76939112       1.63419500      -3.17037340
H        2.66330307       2.82534925      -0.12860770
H        4.00562684       5.58943002      -1.57423172
H        5.35874852       4.41537056      -1.59910274
H        4.25475402       4.47169473      -0.22878701
H        4.80278221       4.93583710      -3.67959860
H        6.39704291       4.61756011      -5.45263175
H        8.10766747       6.07716224      -6.45139376
H        7.47293024       8.11450492      -7.61253898
H        3.27461977      10.37326003      -8.57544253
H        1.56129454       8.99805562      -7.45376698
H        2.18506723       6.98650623      -6.24998841
H        2.48774669       0.97864825      -5.58020143
H        3.52113466       2.33142192      -5.95136759
H        1.73297758       2.52629980      -5.98074158
H        1.13614508       0.86821425      -3.61373582
C       -1.79148683      -1.79148683      -1.79148683
C       -2.76325264      -2.59768305      -1.21502468
C       -3.56323634      -3.43346704      -2.01589543
C       -4.58938752      -4.29114276      -1.32012995
C       -3.35987363      -3.47311786      -3.41980335
N       -4.12450368      -4.41486512      -4.15881457
C       -3.71330218      -5.10147736      -5.29196222
O       -2.60425672      -5.04224395      -5.81016365
C       -4.73932679      -6.02385489      -5.87626826
C       -6.05529663      -5.53949172      -5.96676652
C       -7.04143861      -6.31275210      -6.55912429
C       -6.71622917      -7.56108064      -7.08587264
C       -5.40213793      -8.08687410      -7.03021074
C       -5.04691387      -9.34859526      -7.58218198
Br      -6.30055715     -10.46448871      -8.49231128
C       -3.74408453      -9.84629492      -7.49827787
C       -2.76763629      -9.10699046      -6.85283799
C       -3.09055054      -7.86514702      -6.30805262
C       -4.39281749      -7.30925537      -6.39510250
C       -2.44319806      -2.56828446      -4.00377593
C       -2.28701274      -2.33671062      -5.48412640
C       -1.63813325      -1.76508503      -3.17074124
H       -2.89312862      -2.58919292      -0.13493849
H       -4.35844283      -5.35159168      -1.45925407
H       -5.58995347      -4.07445629      -1.70881207
H       -4.61604823      -4.09691749      -0.24227003
H       -4.91029885      -4.83070581      -3.67721325
H       -6.31218664      -4.54413353      -5.61091461
H       -8.05987936      -5.93975902      -6.63658509
H       -7.52054923      -8.12236305      -7.55706186
H       -3.48317136     -10.80826200      -7.93188897
H       -1.75103658      -9.48520544      -6.77687513
H       -2.28549212      -7.32516921      -5.81090053
H       -2.08582977      -1.27715133      -5.68361528
H       -3.20493495      -2.56603307      -6.03295615
H       -1.44650102      -2.91363259      -5.87988535
H       -0.90134738      -1.09991722      -3.61683055
C       -1.79148683       1.79148683       1.79148683
C       -1.63086281       1.77501781       3.17007975
C       -2.45555870       2.56366781       3.99337231
C       -2.23284210       2.48549651       5.48232162
C       -3.47570762       3.36252075       3.41456648
N       -4.34281293       4.05085556       4.30451488
C       -5.68972230       4.31457646       4.10244299
O       -6.36109500       3.95231968       3.14324965
C       -6.35465296       5.07745187       5.20734511
C       -5.64930277       6.16753993       5.74471217
C       -6.23233800       6.95924338       6.72173363
C       -7.52933006       6.68377533       7.15007707
C       -8.28494470       5.60459569       6.62968237
C       -9.61759628       5.32187314       7.03822169
Br     -10.55191235       6.38991718       8.31552762
C      -10.33190281       4.24044839       6.51630612
C       -9.73352212       3.40804531       5.58589732
C       -8.42977308       3.66768280       5.16629430
C       -7.67851010       4.77025103       5.64841424
C       -3.55644733       3.45324825       2.00556286
C       -4.42848475       4.42511865       1.25424637
C       -2.73419807       2.62871168       1.21104977
H       -0.86971402       1.13556410       3.61198190
H       -3.11622225       2.07356107       5.97950527
H       -2.00961224       3.47937414       5.88423544
H       -1.38238605       1.84139125       5.73145846
H       -4.04363757       4.10579743       5.26878292
H       -4.65824607       6.42882672       5.38016199
H       -5.69260920       7.80725528       7.13635899
H       -7.95021101       7.34458411       7.90517902
H      -11.35306626       4.04004276       6.83021331
H      -10.27714424       2.56051643       5.17545647
H       -8.00637797       2.98178932       4.43339457
H       -3.91298409       4.78004494       0.35356734
H       -4.63897398       5.32379047       1.84115972
H       -5.35836138       3.94537935       0.93627823
H       -2.82559318       2.66524622       0.12725576
C        1.79148683      -1.79148683       1.79148683
C        1.67617222      -1.72660572       3.17318243
C        2.50195298      -2.51533635       3.99530949
C        2.33011632      -2.38334504       5.48719887
C        3.47727750      -3.36455299       3.41096436
N        4.35072807      -4.05235316       4.29510214
C        5.68145743      -4.36574656       4.05953777
O        6.33245490      -4.05567018       3.06853924
C        6.35756019      -5.11472615       5.16716361
C        5.63614101      -6.16402154       5.76139233
C        6.22538766      -6.94315861       6.74476873
C        7.54356661      -6.69652689       7.12308896
C        8.31540656      -5.65922386       6.54459235
C        9.66879515      -5.40712042       6.90177554
Br      10.61002163      -6.46427335       8.18306216
C       10.39939013      -4.36628497       6.32298222
C        9.79759885      -3.54453119       5.38533472
C        8.47344915      -3.77485561       5.01544541
C        7.70398395      -4.83686454       5.55632688
C        3.50947594      -3.50198458       2.00379793
C        4.32582935      -4.52465744       1.25736297
C        2.68819632      -2.67658060       1.20918260
H        0.95015428      -1.04930399       3.61780176
H        3.24161149      -1.98483592       5.94284117
H        2.08895935      -3.35638310       5.92787937
H        1.50878726      -1.70454989       5.74189861
H        4.08135055      -4.06731708       5.26955028
H        4.62609643      -6.40439021       5.43674814
H        5.67303884      -7.75983442       7.20335021
H        7.96774396      -7.34661161       7.88561857
H       11.43596231      -4.18929827       6.59806175
H       10.35395735      -2.72833274       4.93082705
H        8.04826554      -3.09893409       4.27436223
H        3.77056497      -4.89077736       0.38525405
H        4.52692520      -5.41082633       1.86617264
H        5.25951066      -4.08547953       0.89502878
H        2.74326681      -2.75002158       0.12480676
C       -0.00445707       0.01189536      -1.78238275
H       -0.66409135       0.67374010      -2.43557963
H        0.65740317      -0.63156657      -2.45157240
C       -0.90989263      -0.90692880      -0.91072765
C        0.90977584       0.90977584      -0.90977584
C       -0.00465871       1.77757030       0.00794375
H       -0.66225468       2.44313916      -0.64384735
H        0.64322798       2.43503045       0.67728295
C       -1.78241447       0.00034974      -0.00472694
H       -2.45427497      -0.65498947       0.64260836
H       -2.43311707       0.67328779      -0.65473579
C       -0.91132561       0.90220522       0.91563759
C       -0.01476271      -0.02253852       1.78660255
H       -0.67934791      -0.69751639       2.42135241
H        0.63392994       0.61504881       2.47327442
C        0.01484550      -1.77751727      -0.01636693
H        0.67870853      -2.42144646      -0.68295456
H       -0.62264859      -2.45592969       0.64226336
C        1.78714474       0.01002794       0.00389507
H        2.44202412       0.67113390       0.66197326
H        2.45385902      -0.65136977      -0.64189061
C        0.91606151      -0.90478549       0.90901405
