165
Properties=species:S:1:pos:R:3 pbc="F F F"
C        0.00000000       0.00000000       0.00000000
C        0.88115886       0.88115886      -0.88115886
C        0.56643575       2.22444747      -1.05407221
C        1.37935070       3.02826139      -1.86062678
C        2.52156445       2.51283564      -2.50365066
C        2.80423700       1.14545023      -2.31785144
C        1.99438347       0.33573269      -1.51188459
C        3.37241975       3.38461335      -3.34131528
N        2.73760159       4.40347686      -3.96735417
C        3.42566786       5.24596886      -4.75343396
C        2.72232228       6.26923596      -5.37572520
C        3.34542160       7.19038970      -6.21969449
C        4.70801180       7.08421067      -6.44944962
C        5.44118405       6.06878666      -5.83875451
C        4.81189970       5.13367262      -4.97386369
C        5.45818362       4.06741741      -4.30670274
C        4.73644950       3.19842293      -3.48104626
C        6.92068282       3.84869661      -4.42834353
O        7.75468656       4.73669708      -4.39897054
O        7.12873309       2.48679932      -4.59267593
C        8.43679805       2.00386531      -4.77655179
C        9.33059961       2.58417882      -5.67454356
C       10.58634515       2.00408544      -5.85950314
C       10.93274176       0.84436534      -5.16317422
C       10.02481698       0.25971589      -4.27947847
C        8.76911892       0.83667025      -4.08851345
H       -0.30496621       2.65934223      -0.57164703
H        1.11595642       4.07836286      -1.98555517
H        3.65275414       0.68059361      -2.81503292
H        2.24048237      -0.71595065      -1.39062930
H        1.65108326       6.35173278      -5.19975768
H        2.75698769       7.97598855      -6.68637841
H        6.50996174       6.00944741      -6.03517165
H        5.24403370       2.40607027      -2.93944409
H        9.06701722       3.47753951      -6.23176700
H       11.29408502       2.45450015      -6.55077183
H       11.91100420       0.39369353      -5.31394947
H       10.29444806      -0.64752780      -3.74504993
H        8.05836464       0.37564371      -3.41021404
C        5.36439007       8.02334013      -7.32169007
C        5.91410687       8.80986106      -8.05219146
Br       6.80295244      10.08159888      -9.23335041
C       -0.88115886      -0.88115886      -0.88115886
C       -2.03335001      -1.45562763      -0.35597780
C       -2.83896056      -2.26018269      -1.16909563
C       -2.51695660      -2.50238930      -2.51870485
C       -1.33633687      -1.91602614      -3.01517566
C       -0.52582289      -1.10987850      -2.20629936
C       -3.39024915      -3.34619592      -3.36190331
N       -4.06131473      -4.32970950      -2.71740839
C       -4.87533275      -5.15026751      -3.39947042
C       -5.53360137      -6.14528918      -2.68839289
C       -6.39336465      -7.05404324      -3.30809790
C       -6.59872484      -6.96701639      -4.67593086
C       -5.95322101      -5.97892031      -5.41658390
C       -5.08292051      -5.04805336      -4.78846215
C       -4.37840722      -4.01112304      -5.44277351
C       -3.53868792      -3.15316912      -4.72406166
C       -4.52525234      -3.77261461      -6.89985601
O       -5.58549276      -3.80517201      -7.49968941
O       -3.25945712      -3.53349422      -7.41525700
C       -3.10421102      -3.31680100      -8.79620313
C       -3.70109190      -4.13351323      -9.75471686
C       -3.44033854      -3.90334401     -11.10625119
C       -2.57594315      -2.87557098     -11.48876720
C       -1.96841426      -2.07410607     -10.52149101
C       -2.22743421      -2.29778235      -9.16908605
H       -2.31671412      -1.28930995       0.68000101
H       -3.73726417      -2.70311609      -0.73949420
H       -1.01576406      -2.09317909      -4.03943752
H        0.37919164      -0.67351560      -2.62083705
H       -5.37028112      -6.21785677      -1.61443583
H       -6.88846230      -7.81733479      -2.71355756
H       -6.13362516      -5.93215269      -6.48880296
H       -3.03151568      -2.33378592      -5.22424647
H       -4.36357166      -4.94423839      -9.46851368
H       -3.90839378      -4.52900105     -11.86196217
H       -2.37262063      -2.70289729     -12.54312928
H       -1.28975995      -1.28009239     -10.82211785
H       -1.74594505      -1.68224233      -8.41603501
C       -7.47833055      -7.90036348      -5.33072625
C       -8.21500034      -8.68204167      -5.87911739
Br      -9.40613307      -9.94594919      -6.76581948
C       -0.88115886       0.88115886       0.88115886
C       -0.57896284       1.03653488       2.22945772
C       -1.38850309       1.84781387       3.03192192
C       -2.50772565       2.52302432       2.50730077
C       -2.79303125       2.33353895       1.14096846
C       -1.98663097       1.52273772       0.33263206
C       -3.34137854       3.38477152       3.37219832
N       -3.41412788       3.02024907       4.67405568
C       -4.15056296       3.73861479       5.53589293
C       -4.19422269       3.31513360       6.85792715
C       -4.93912334       3.98858673       7.82779572
C       -5.66162948       5.11442956       7.46561305
C       -5.63707181       5.56452083       6.14713258
C       -4.87475432       4.88587017       5.15881153
C       -4.78136628       5.25421530       3.79672219
C       -4.00412327       4.50626867       2.90552675
C       -5.47156108       6.45704606       3.26911582
O       -5.51687915       7.53179605       3.84167898
O       -6.04290182       6.11278883       2.05251770
C       -6.80125988       7.06622859       1.34972669
C       -7.77919844       7.84643250       1.96369105
C       -8.54466066       8.71776576       1.18750732
C       -8.34141808       8.79090594      -0.19204270
C       -7.37235186       7.99280533      -0.80114586
C       -6.60232191       7.12192773      -0.02994702
H        0.27827695       0.53428332       2.67001669
H       -1.13683815       1.95632172       4.08671458
H       -3.66298192       2.80071450       0.68468424
H       -2.23578993       1.39719849      -0.71782740
H       -3.63063796       2.42847386       7.14346190
H       -4.94531569       3.62282176       8.85121720
H       -6.21218821       6.45204065       5.89035196
H       -3.90340668       4.81625910       1.86988229
H       -7.95561848       7.78767315       3.03303210
H       -9.30359504       9.33736452       1.65839744
H       -8.94341879       9.46842997      -0.79320156
H       -7.22211984       8.04616547      -1.87631511
H       -5.85666568       6.49248941      -0.50493270
C       -6.43923848       5.81695267       8.45322913
C       -7.09048602       6.40531577       9.28035760
Br      -8.14349821       7.35664915      10.61775437
C        0.88115886      -0.88115886       0.88115886
C        2.24584396      -0.62971699       0.96939449
C        3.04839295      -1.43889085       1.78095508
C        2.50794248      -2.50709267       2.52301559
C        1.12450441      -2.74228862       2.40074564
C        0.31598688      -1.93598419       1.59002968
C        3.37396442      -3.34092497       3.38345900
N        4.65542635      -3.48275553       2.97025074
C        5.51629489      -4.22517139       3.68360440
C        6.81659906      -4.34117761       3.20950676
C        7.78309441      -5.09837711       3.87403427
C        7.43964160      -5.75921757       5.04281291
C        6.14323199      -5.66136005       5.54413318
C        5.15879788      -4.88620897       4.87442916
C        3.81819569      -4.72109718       5.29301090
C        2.92842004      -3.93790168       4.54959698
C        3.31412331      -5.33965404       6.54394561
O        3.92892855      -5.36566843       7.59575720
O        2.06218021      -5.87289961       6.27312852
C        1.37002877      -6.56219295       7.28499344
C        1.97632256      -7.53283258       8.08016685
C        1.20717643      -8.22944463       9.01331268
C       -0.15880832      -7.96580263       9.13328701
C       -0.76135573      -7.00494369       8.32042337
C        0.00301669      -6.30354444       7.38774150
H        2.69908626       0.18742115       0.41435795
H        4.11607156      -1.22748187       1.83632102
H        0.65358264      -3.57286777       2.92193026
H       -0.74797866      -2.14575782       1.51738186
H        7.08716438      -3.82616109       2.28924825
H        8.78921464      -5.16214685       3.46799315
H        5.90094461      -6.18905896       6.46457724
H        1.91156149      -3.78149784       4.89648874
H        3.03430296      -7.75612168       7.98589908
H        1.67271468      -8.98191316       9.64472916
H       -0.75477235      -8.51435562       9.85906393
H       -1.82643377      -6.80777133       8.41063264
H       -0.46755641      -5.56455571       6.74722309
C        8.42375726      -6.54864489       5.73701813
C        9.24795412      -7.20979026       6.31841500
Br      10.58061075      -8.27880642       7.25848456
