157
Properties=species:S:1:pos:R:3 pbc="F F F"
C        0.00000000       0.00000000       0.00000000
C        0.88115886       0.88115886      -0.88115886
C        0.56643575       2.22444747      -1.05407221
C        1.37935070       3.02826139      -1.86062678
C        2.52156445       2.51283564      -2.50365066
C        2.80423700       1.14545023      -2.31785144
C        1.99438347       0.33573269      -1.51188459
C        3.37241975       3.38461335      -3.34131528
N        2.73760159       4.40347686      -3.96735417
C        3.42566786       5.24596886      -4.75343396
C        2.72232228       6.26923596      -5.37572520
C        3.34542160       7.19038970      -6.21969449
C        4.70801180       7.08421067      -6.44944962
Br       5.56893038       8.31599125      -7.59349727
C        5.44118405       6.06878666      -5.83875451
C        4.81189970       5.13367262      -4.97386369
C        5.45818362       4.06741741      -4.30670274
C        4.73644950       3.19842293      -3.48104626
C        6.92068282       3.84869661      -4.42834353
O        7.75468656       4.73669708      -4.39897054
O        7.12873309       2.48679932      -4.59267593
C        8.43679805       2.00386531      -4.77655179
C        9.33059961       2.58417882      -5.67454356
C       10.58634515       2.00408544      -5.85950314
C       10.93274176       0.84436534      -5.16317422
C       10.02481698       0.25971589      -4.27947847
C        8.76911892       0.83667025      -4.08851345
H       -0.30496621       2.65934223      -0.57164703
H        1.11595642       4.07836286      -1.98555517
H        3.65275414       0.68059361      -2.81503292
H        2.24048237      -0.71595065      -1.39062930
H        1.65108326       6.35173278      -5.19975768
H        2.75698769       7.97598855      -6.68637841
H        6.50996174       6.00944741      -6.03517165
H        5.24403370       2.40607027      -2.93944409
H        9.06701722       3.47753951      -6.23176700
H       11.29408502       2.45450015      -6.55077183
H       11.91100420       0.39369353      -5.31394947
H       10.29444806      -0.64752780      -3.74504993
H        8.05836464       0.37564371      -3.41021404
C       -0.88115886      -0.88115886      -0.88115886
C       -2.02853652      -1.46293235      -0.35348656
C       -2.83418445      -2.26745479      -1.16659963
C       -2.51702758      -2.50238197      -2.51864120
C       -1.34114820      -1.90871500      -3.01767546
C       -0.53062239      -1.10256016      -2.20881820
C       -3.39031692      -3.34632002      -3.36171145
N       -4.05427841      -4.33554814      -2.71860608
C       -4.86769169      -5.15667981      -3.40069918
C       -5.51851564      -6.15764944      -2.69111836
C       -6.37701749      -7.06744642      -3.31104188
C       -6.58872595      -6.97537032      -4.67757582
Br      -7.74083974      -8.20084746      -5.53673171
C       -5.95076560      -5.98125330      -5.41670632
C       -5.08178613      -5.04933442      -4.78831546
C       -4.38465271      -4.00650181      -5.44114925
C       -3.54554118      -3.14802205      -4.72235546
C       -4.53889568      -3.76230336      -6.89652391
O       -5.60159406      -3.79688228      -7.49187785
O       -3.27641519      -3.51541827      -7.41637488
C       -3.12814531      -3.29204636      -8.79702348
C       -3.72564965      -4.10718192      -9.75649041
C       -3.47180467      -3.87000137     -11.10812770
C       -2.61356535      -2.83680947     -11.48990650
C       -2.00530862      -2.03691254     -10.52179017
C       -2.25744467      -2.26759649      -9.16926146
H       -2.30809402      -1.30236013       0.68443110
H       -3.72866878      -2.71617099      -0.73503468
H       -1.02428444      -2.08001073      -4.04408551
H        0.37066709      -0.66045053      -2.62537758
H       -5.35019264      -6.23417230      -1.61820878
H       -6.86619015      -7.83547097      -2.71769352
H       -6.13605240      -5.93061209      -6.48791632
H       -3.04412597      -2.32426447      -5.22115762
H       -4.38334161      -4.92202944      -9.47095269
H       -3.94043089      -4.49440460     -11.86452151
H       -2.41560225      -2.65866639     -12.54437855
H       -1.33143276      -1.23864283     -10.82189461
H       -1.77535240      -1.65323986      -8.41563013
C       -0.88115886       0.88115886       0.88115886
C       -0.58117848       1.03347565       2.23030130
C       -1.39070238       1.84476774       3.03276875
C       -2.50769652       2.52302506       2.50732917
C       -2.79081626       2.33660109       1.14012132
C       -1.98442053       1.52580345       0.33177676
C       -3.34135535       3.38471428       3.37227875
N       -3.41719600       3.01791633       4.67332030
C       -4.15389730       3.73604979       5.53512359
C       -4.20079511       3.31020193       6.85628639
C       -4.94624567       3.98323854       7.82602158
C       -5.66599141       5.11108944       7.46459124
Br      -6.68661227       6.03202255       8.75978408
C       -5.63815289       5.56357616       6.14699617
C       -4.87526094       4.88534389       5.15883118
C       -4.77866279       5.25603779       3.79760319
C       -4.00115402       4.50830217       2.90646251
C       -5.46564765       6.46112284       3.27095246
O       -5.51003720       7.53489254       3.84542444
O       -6.03536617       6.12018104       2.05266113
C       -6.79065093       7.07632701       1.35023722
C       -7.76828027       7.85720589       1.96383583
C       -8.53068506       8.73139478       1.18785390
C       -8.32474723       8.80671320      -0.19117911
C       -7.35603238       8.00794515      -0.79996619
C       -6.58904978       7.13421266      -0.02895982
H        0.27431022       0.52881861       2.67151467
H       -1.14079499       1.95085406       4.08822540
H       -3.65905160       2.80623496       0.68309411
H       -2.23186155       1.40267315      -0.71937368
H       -3.63938487       2.42197025       7.14121860
H       -4.95501507       3.61559037       8.84874921
H       -6.21114653       6.45263604       5.89079823
H       -3.89794133       4.82002320       1.87158354
H       -7.94679326       7.79679315       3.03273732
H       -9.28934296       9.35152765       1.65848640
H       -8.92437495       9.48646591      -0.79219366
H       -7.20370650       8.06301809      -1.87475440
H       -5.84368061       6.50427251      -0.50373073
C        0.88115886      -0.88115886       0.88115886
C        2.24642112      -0.63190464       0.96662967
C        3.04897422      -1.44106307       1.77820158
C        2.50796976      -2.50706690       2.52301409
C        1.12392406      -2.74010132       2.40351329
C        0.31539898      -1.93380064       1.59280113
C        3.37403719      -3.34090883       3.38340237
N        4.65454496      -3.48564086       2.96824680
C        5.51536336      -4.22830935       3.68139797
C        6.81465317      -4.34735353       3.20527674
C        7.78098915      -5.10507005       3.86944659
C        7.43840942      -5.76332143       5.03994124
Br       8.72898007      -6.79940078       5.95003805
C        6.14302976      -5.66238601       5.54330945
C        5.15877690      -4.88669608       4.87396303
C        3.81917806      -4.71857239       5.29455332
C        2.92947088      -3.93512627       4.55132155
C        3.31619229      -5.33412462       6.54740604
O        3.93275308      -5.35939340       7.59820770
O        2.06287700      -5.86568710       6.27964425
C        1.37128219      -6.55206227       7.29387069
C        1.97727646      -7.52237782       8.08966770
C        1.20853983      -8.21607440       9.02531951
C       -0.15678452      -7.94988796       9.14717789
C       -0.75907946      -6.98938974       8.33370105
C        0.00489246      -6.29089700       7.39851316
H        2.70010870       0.18350547       0.40941982
H        4.11710608      -1.23138905       1.83137932
H        0.65247609      -3.56898001       2.92692458
H       -0.74904664      -2.14187524       1.52233242
H        7.08452198      -3.83437579       2.28367595
H        8.78630179      -5.17125756       3.46179529
H        5.90141744      -6.18809422       6.46506915
H        1.91347703      -3.77638769       4.89968334
H        3.03471042      -7.74763988       7.99397342
H        1.67387155      -8.96825841       9.65722704
H       -0.75244161      -8.49617722       9.87491158
H       -1.82366265      -6.79023912       8.42539372
H       -0.46551273      -5.55219969       6.75753544
