74
Properties=species:S:1:pos:R:3 pbc="F F F"
F        1.62282362       3.47879498      -4.98818929
C        2.10923873       3.04982160      -3.81478340
C        1.30094925       2.24594472      -3.01451903
C        1.79172497       1.79172497      -1.79172497
C        3.07922199       2.14371675      -1.38287153
F        3.56558249       1.71475763      -0.20940807
C        3.88752656       2.94757360      -2.18311662
C        3.39660473       3.40171153      -3.40588137
H        0.30375788       1.98753137      -3.35693960
H        4.88466887       3.20591865      -1.84060929
C        4.22802286       4.23310168      -4.23722625
C        4.92433555       4.92939092      -4.93347758
Br       6.05021427       6.05523175      -6.05925711
F       -5.18947965      -3.03338618      -1.86694206
C       -3.91678943      -2.82410594      -2.23294836
C       -3.11699715      -2.01918445      -1.42523140
C       -1.79172497      -1.79172497      -1.79172497
C       -1.28141968      -2.36820612      -2.95618447
F       -0.00871408      -2.15884682      -3.32218730
C       -2.08118093      -3.17313361      -3.76390224
C       -3.40643070      -3.40049597      -3.39727095
H       -3.53953889      -1.58348157      -0.52520839
H       -1.65855111      -3.60877112      -4.66387459
C       -4.23777866      -4.23187932      -4.22869281
C       -4.93403257      -4.92816287      -4.92500862
Br      -6.05981626      -6.05399448      -6.05089239
F       -1.87626176       3.01909775       5.19444838
C       -2.23768086       2.81685034       3.91931253
C       -1.42999739       2.01187750       3.11953810
C       -1.79172497       1.79172497       1.79172497
C       -2.95147137       2.37543198       1.27890692
F       -3.31282672       2.17319792       0.00372355
C       -3.75916937       3.18038978       2.07865763
C       -3.39730449       3.40044454       3.40644859
H       -0.53369006       1.57047795       3.54406083
H       -4.65542460       3.62172615       1.65404606
C       -4.22871554       4.23184447       4.23779078
C       -4.92502230       4.92814190       4.93403986
Br      -6.05089143       6.05399596       6.05981574
F        5.18952734      -3.03325031       1.86703024
C        3.91681360      -2.82403708       2.23299304
C        3.11702144      -2.01911527       1.42527629
C        1.79172497      -1.79172497       1.79172497
C        1.28139564      -2.36827460       2.95614002
F        0.00866651      -2.15898232       3.32209937
C        2.08115677      -3.17320242       3.76385758
C        3.40643083      -3.40049560       3.39727119
H        3.53958216      -1.58335830       0.52528838
H        1.65850796      -3.60889402       4.66379483
C        4.23777879      -4.23187895       4.22869305
C        4.93403270      -4.92816250       4.92500886
Br       6.05981639      -6.05399411       6.05089263
C       -0.00445707       0.01189536      -1.78238275
H       -0.66409135       0.67374010      -2.43557963
H        0.65740317      -0.63156657      -2.45157240
C       -0.90989263      -0.90692880      -0.91072765
C        0.90977584       0.90977584      -0.90977584
C       -0.00465871       1.77757030       0.00794375
H       -0.66225468       2.44313916      -0.64384735
H        0.64322798       2.43503045       0.67728295
C       -1.78241447       0.00034974      -0.00472694
H       -2.45427497      -0.65498947       0.64260836
H       -2.43311707       0.67328779      -0.65473579
C       -0.91132561       0.90220522       0.91563759
C       -0.01476271      -0.02253852       1.78660255
H       -0.67934791      -0.69751639       2.42135241
H        0.63392994       0.61504881       2.47327442
C        0.01484550      -1.77751727      -0.01636693
H        0.67870853      -2.42144646      -0.68295456
H       -0.62264859      -2.45592969       0.64226336
C        1.78714474       0.01002794       0.00389507
H        2.44202412       0.67113390       0.66197326
H        2.45385902      -0.65136977      -0.64189061
C        0.91606151      -0.90478549       0.90901405
