53
Properties=species:S:1:pos:R:3 pbc="F F F"
C        0.00000000       0.00000000       0.00000000
F        0.71291959       2.56889096      -4.07828526
C        1.19933471       2.13991757      -2.90487937
C        0.39104522       1.33604069      -2.10461501
C        0.88182095       0.88182095      -0.88182095
C        2.16931797       1.23381272      -0.47296751
F        2.65567847       0.80485360       0.70049595
C        2.97762253       2.03766957      -1.27321260
C        2.48670071       2.49180750      -2.49597734
H       -0.60614615       1.07762734      -2.44703557
H        3.97476484       2.29601463      -0.93070527
C        3.31811884       3.32319765      -3.32732222
C        4.01443153       4.01948690      -4.02357356
Br       5.14031025       5.14532773      -5.14935308
F       -4.27953290      -2.12360384      -0.95695908
C       -3.00686376      -1.91426358      -1.32300432
C       -2.20707137      -1.10934238      -0.51528717
C       -0.88182095      -0.88182095      -0.88182095
C       -0.37153719      -1.45824076      -2.04632024
F        0.90114734      -1.24882144      -2.41236202
C       -1.17129854      -2.26316796      -2.85403821
C       -2.49652656      -2.49059229      -2.48736671
H       -2.62959610      -0.67368794       0.38476727
H       -0.74868573      -2.69875703      -3.75404198
C       -3.32787452      -3.32197563      -3.31878857
C       -4.02412843      -4.01825917      -4.01510438
Br      -5.14991212      -5.14409078      -5.14098816
F       -0.96621411       2.10941282       4.28446888
C       -1.32770404       1.90705735       3.00937026
C       -0.52002023       1.10208504       2.20959565
C       -0.88182095       0.88182095       0.88182095
C       -2.04163974       1.46541751       0.36904094
F       -2.40306594       1.26307540      -0.90610521
C       -2.84933809       2.27037479       1.16879183
C       -2.48740007       2.49054112       2.49654436
H        0.37634427       0.66077270       2.63408834
H       -3.74565049       2.71162395       0.74421030
C       -3.31881113       3.32194104       3.32788655
C       -4.01511788       4.01823847       4.02413563
Br      -5.14098702       5.14409253       5.14991151
F        4.27958902      -2.12344398       0.95706281
C        3.00689220      -1.91418257       1.32305688
C        2.20709995      -1.10926099       0.51533999
C        0.88182095      -0.88182095       0.88182095
C        0.37150890      -1.45832133       2.04626796
F       -0.90120331      -1.24898086       2.41225858
C        1.17127012      -2.26324892       2.85398567
C        2.49652672      -2.49059185       2.48736699
H        2.62964702      -0.67354291      -0.38467316
H        0.74863496      -2.69890162       3.75394816
C        3.32787467      -3.32197519       3.31878886
C        4.02412858      -4.01825874       4.01510466
Br       5.14991227      -5.14409035       5.14098844
