169
Properties=species:S:1:pos:R:3 pbc="F F F"
C        0.00000000       0.00000000       0.00000000
C        0.88129335       0.88129335      -0.88129335
C        2.24904418       0.95627570      -0.63854029
C        3.05714138       1.76682697      -1.44545194
C        2.51666800       2.51206278      -2.51065813
C        1.12617336       2.41797639      -2.72194447
C        0.31386443       1.61073569      -1.91928183
C        3.35012547       3.37697801      -3.37319162
N        2.72589874       4.46053765      -3.89059464
C        3.39793513       5.32121146      -4.66680143
C        2.70325883       6.42107879      -5.15201450
C        3.30871365       7.37896707      -5.96644226
C        4.64386836       7.22993895      -6.30721568
Br       5.48179745       8.51636098      -7.40551889
C        5.36575995       6.13201408      -5.83867405
C        4.75626053       5.15709727      -5.00328328
C        5.38842287       4.00539323      -4.47336588
C        4.68113384       3.11940421      -3.65163905
C        6.82680369       3.71926026      -4.72617667
O        7.70007240       4.56667044      -4.74309421
O        6.96473719       2.35132002      -4.92762100
C        8.23470747       1.78564325      -5.18303037
C        9.12817042       2.37542475      -6.07867019
C       10.35313397       1.76000459      -6.33633008
C       10.67457907       0.55517925      -5.71369415
C        9.76793591      -0.04371694      -4.83659485
C        8.52771294       0.55566865      -4.57182903
C        7.57047257      -0.09901092      -3.61990345
H        2.69773386       0.39725612       0.17932213
H        4.11706693       1.82171558      -1.20869335
H        0.66224233       2.98621007      -3.52859248
H       -0.75449442       1.56616969      -2.11424790
H        1.65469514       6.53888573      -4.88427010
H        2.72888577       8.22656848      -6.32069567
H        6.41178520       6.04109066      -6.12299733
H        5.16897517       2.24174235      -3.24063797
H        8.88881654       3.30917996      -6.57866618
H       11.05737930       2.22211985      -7.02335417
H       11.63067600       0.07938713      -5.91389738
H       10.03634166      -0.98607458      -4.36418593
H        6.55654705      -0.10765804      -4.03300450
H        7.56826459       0.43245522      -2.66453163
H        7.84810024      -1.14187911      -3.43091876
C       -0.88129335      -0.88129335      -0.88129335
C       -0.36984234      -1.41357936      -2.06043847
C       -1.17919732      -2.21997226      -2.87025070
C       -2.50982525      -2.51348029      -2.51608338
C       -2.99660684      -1.95052174      -1.31896564
C       -2.19347917      -1.14407247      -0.50633030
C       -3.38350539      -3.35942474      -3.35736496
N       -4.70509851      -3.07431343      -3.29761908
C       -5.58012697      -3.76680023      -4.03902083
C       -6.91937683      -3.41316129      -3.94381400
C       -7.91189543      -4.06795236      -4.67427519
C       -7.55478765      -5.10666547      -5.51956987
Br      -8.88225419      -6.00306879      -6.51835435
C       -6.21741461      -5.48742618      -5.63160729
C       -5.20157301      -4.81962309      -4.89544498
C       -3.81778388      -5.12114439      -4.92825371
C       -2.90962028      -4.38226424      -4.16029258
C       -3.27345430      -6.19168428      -5.80710205
O       -3.66052285      -6.40912531      -6.94018888
O       -2.27815794      -6.86050651      -5.10501377
C       -1.57232149      -7.93079770      -5.70026191
C       -2.23146517      -8.92307779      -6.42772240
C       -1.50267278      -9.98652509      -6.96027078
C       -0.12659703     -10.06399755      -6.75285790
C        0.52530718      -9.08183628      -6.00428471
C       -0.19206295      -8.00970050      -5.45344717
C        0.52764921      -6.95981117      -4.65920313
H        0.65238008      -1.20236510      -2.36568283
H       -0.75388106      -2.59577184      -3.79782297
H       -4.02474507      -2.14179574      -1.01050407
H       -2.60674852      -0.72797074       0.40879609
H       -7.20036253      -2.59707094      -3.28041750
H       -8.94749407      -3.75595554      -4.57270031
H       -5.96711346      -6.30639326      -6.30236647
H       -1.84924059      -4.60979584      -4.19231906
H       -3.30431285      -8.88188260      -6.59046723
H       -2.00977261     -10.75485788      -7.53822283
H        0.43919630     -10.89187386      -7.17128296
H        1.59910115      -9.16299069      -5.85056348
H       -0.01480506      -6.73101464      -3.73607382
H        0.63484022      -6.04773750      -5.25235416
H        1.52805900      -7.29792737      -4.36727152
C       -0.88129335       0.88129335       0.88129335
C       -1.68838706       1.85449702       0.30097610
C       -2.49494544       2.66474605       1.10972880
C       -2.51450342       2.51535270       2.50953280
C       -1.67811058       1.52489953       3.06308411
C       -0.87004423       0.71303555       2.26080216
C       -3.35539875       3.36175490       3.38314145
N       -2.86693267       3.58471935       4.62537900
C       -3.54050936       4.35758554       5.48785312
C       -2.97638149       4.55966433       6.74030629
C       -3.59351846       5.34875579       7.71184873
C       -4.80932145       5.94837998       7.42332157
Br      -5.65870757       7.02183509       8.72313466
C       -5.40255190       5.75887943       6.17501675
C       -4.77528334       4.96202650       5.17933124
C       -5.28429374       4.69920181       3.88368643
C       -4.56587919       3.90160407       2.98469384
C       -6.56548571       5.29292477       3.41383015
O       -6.92190000       6.43079945       3.65713760
O       -7.24029709       4.32998495       2.67339617
C       -8.49474501       4.61905932       2.08957677
C       -9.48995469       5.29403018       2.79828049
C      -10.72995618       5.51907570       2.20043677
C      -10.97682681       5.05817734       0.90844832
C       -9.98655456       4.36245334       0.21180592
C       -8.73655243       4.11889662       0.79976157
C       -7.68253229       3.37686762       0.03196519
H       -1.69319352       1.99933133      -0.77685699
H       -3.09161702       3.43269562       0.62316323
H       -1.65244735       1.38102957       4.14356796
H       -0.23827062      -0.03886720       2.72651975
H       -2.02122444       4.08933905       6.96728749
H       -3.11481127       5.48369799       8.67764066
H       -6.35717148       6.24144392       5.97725780
H       -4.95374460       3.70743140       1.99017950
H       -9.31633630       5.65145862       3.80886776
H      -11.50369501       6.05538182       2.74377648
H      -11.94260260       5.23738900       0.44396892
H      -10.20077636       4.00755892      -0.79388226
H       -7.21175102       2.61199400       0.65814850
H       -6.91906419       4.07252155      -0.32633431
H       -8.11049232       2.86184114      -0.83519358
C        0.88129335      -0.88129335       0.88129335
C        1.88565378      -0.30552308       1.65268331
C        2.69585148      -1.11435967       2.45920914
C        2.51546419      -2.50955494       2.51436978
C        1.49379096      -3.05883556       1.71346770
C        0.68179869      -2.25646311       0.90562013
C        3.36112686      -3.38327348       3.35589475
N        3.54474848      -4.64100261       2.89127993
C        4.31330937      -5.50566611       3.56697254
C        4.47408303      -6.77482822       3.02744088
C        5.25510441      -7.75014818       3.64887040
C        5.88892430      -7.44820634       4.84389234
Br       6.95211999      -8.75294773       5.69860961
C        5.74129941      -6.18282485       5.41232382
C        4.95283085      -5.18342370       4.78038653
C        4.73104565      -3.87093410       5.26520222
C        3.93755543      -2.97021102       4.54441064
C        5.36455715      -3.38614883       6.52153465
O        6.50457325      -3.64751825       6.85774555
O        4.43433721      -2.60871898       7.20062202
C        4.76530844      -2.00361350       8.43445915
C        5.44689733      -2.70508828       9.43027975
C        5.71385593      -2.08481599      10.65079672
C        5.28797838      -0.77732074      10.87815335
C        4.58548927      -0.08731172       9.88801283
C        4.30002134      -0.69749982       8.65768946
C        3.55138495       0.06325748       7.60323763
H        2.05479527       0.76852210       1.62939468
H        3.48810547      -0.63230226       3.02706814
H        1.32507313      -4.13602200       1.71594975
H       -0.09475601      -2.71884350       0.30183567
H        3.97688562      -7.01236535       2.08860000
H        5.35719954      -8.72932756       3.18962282
H        6.25005923      -5.97478887       6.35102510
H        3.77481456      -1.96300524       4.91353569
H        5.77738310      -3.72729512       9.27198446
H        6.25547363      -2.62280533      11.42457435
H        5.49980610      -0.29546288      11.82869153
H        4.25836130       0.93085454      10.08694626
H        2.76196153      -0.55558114       7.16435084
H        4.23715755       0.38815208       6.81624596
H        3.06601260       0.95146850       8.02259579
