178
Properties=species:S:1:pos:R:3 pbc="F F F"
C        1.79119667       1.79119667      -1.79119667
C        1.39819330       2.08300226      -3.09220018
C        2.20785734       2.89448416      -3.89366526
C        3.42353268       3.42653683      -3.41936610
C        3.78863619       3.11616776      -2.09518499
C        2.98203652       2.30480939      -1.28741148
C        4.25526428       4.28853780      -4.28646784
N        3.57943536       5.01381330      -5.20911418
C        4.23741456       5.83784864      -6.03738457
C        3.48789150       6.56201188      -6.95483258
C        4.07702146       7.45549525      -7.85083078
C        5.45201071       7.62945769      -7.82718407
Br       6.26782106       8.84032276      -9.02558212
C        6.23095710       6.91500449      -6.91869863
C        5.63554076       6.00113758      -6.00865780
C        6.32553980       5.23152922      -5.04284649
C        5.63341612       4.36623467      -4.18675869
C        7.80176088       5.29811057      -4.91188910
O        8.58466589       5.30182652      -5.84564436
O        8.09723571       5.39709031      -3.56295081
C        9.45489390       5.49168418      -3.21331627
C       10.22902217       6.55842634      -3.67519559
C       11.55033989       6.68326618      -3.24345197
C       12.07929469       5.75593956      -2.34367075
Cl      13.70283380       5.93052068      -1.80033277
C       11.30315450       4.69795893      -1.87057134
C        9.98376010       4.56850676      -2.30450270
Cl       9.02785285       3.26824312      -1.69360643
H        0.46743350       1.69242305      -3.49488595
H        1.88058106       3.11606635      -4.90955987
H        4.70032077       3.51952092      -1.65936414
H        3.29077411       2.08862723      -0.26780027
H        2.40759454       6.42924317      -6.97105728
H        3.45309298       8.00319822      -8.55212562
H        7.30799985       7.06933562      -6.92379808
H        6.17167059       3.75240823      -3.47126621
H        9.81592961       7.28829523      -4.36588028
H       12.15958508       7.50778051      -3.60625515
H       11.72220641       3.98709517      -1.16364180
C       -1.79119667      -1.79119667      -1.79119667
C       -2.67541961      -2.69079862      -1.20717750
C       -3.48338806      -3.49279659      -2.01982212
C       -3.42448943      -3.41906542      -3.42588076
C       -2.52241931      -2.49312654      -3.98444309
C       -1.71118982      -1.68680807      -3.17625949
C       -4.29684906      -4.27339874      -4.26002212
N       -5.48608785      -4.60989909      -3.70637589
C       -6.35743674      -5.37111252      -4.38409852
C       -7.56386518      -5.67385195      -3.76701884
C       -8.54196432      -6.44760648      -4.39377670
C       -8.30683091      -6.92998265      -5.67183892
Br      -9.62122624      -7.97168741      -6.54081228
C       -7.10439767      -6.64419723      -6.31606532
C       -6.10458262      -5.86124921      -5.67950431
C       -4.85540759      -5.50487373      -6.23963418
C       -3.94622994      -4.71700078      -5.52317875
C       -4.45561366      -5.96350280      -7.59264408
O       -4.61786331      -7.09231514      -8.02195833
O       -3.92056406      -4.87557840      -8.26113438
C       -3.49022170      -5.08786948      -9.58180316
C       -4.39503307      -5.50867825     -10.55893278
C       -3.96821795      -5.62633079     -11.88250930
C       -2.65187419      -5.30648259     -12.22054823
Cl      -2.14080936      -5.43399935     -13.85887852
C       -1.75077907      -4.87265351     -11.24825219
C       -2.17391063      -4.75895082      -9.92390811
Cl      -1.05521709      -4.19921437      -8.73527095
H       -2.75102227      -2.77720884      -0.12651138
H       -4.17395561      -4.18880733      -1.54344434
H       -2.44994820      -2.36660219      -5.06265544
H       -1.02894624      -0.97863845      -3.63961693
H       -7.75107829      -5.29172868      -2.76508803
H       -9.47305423      -6.66019638      -3.87516620
H       -6.94546885      -7.03773287      -7.31793184
H       -2.97518926      -4.47584352      -5.94431226
H       -5.42318499      -5.74641441     -10.30050572
H       -4.66690228      -5.96102540     -12.64569306
H       -0.73109456      -4.61788427     -11.52396455
C       -1.79119667       1.79119667       1.79119667
C       -1.76939424       1.63207422       3.17192726
C       -2.57606098       2.44532930       3.97461649
C       -3.42152279       3.42727202       3.42064080
C       -3.41472249       3.56598163       2.01928482
C       -2.60886788       2.75527739       1.21011212
C       -4.25726852       4.27858412       4.29441728
N       -3.75509438       4.51815609       5.52911237
C       -4.42764524       5.28910859       6.39589394
C       -3.85628362       5.50575520       7.64269714
C       -4.47047493       6.30317412       8.60969845
C       -5.68769100       6.90013120       8.32083027
Br      -6.53109637       7.98998369       9.61264588
C       -6.28666932       6.69955359       7.07843732
C       -5.66705652       5.88468997       6.09358966
C       -6.17910148       5.61886437       4.80194965
C       -5.47605545       4.80573985       3.90461418
C       -7.48093442       6.17386606       4.35696006
O       -8.49345313       6.20443150       5.03425215
O       -7.30652460       6.67322791       3.07752432
C       -8.42409725       7.26797440       2.46782270
C       -9.03181537       8.38443119       3.04639754
C      -10.08311193       9.01482092       2.37912519
C      -10.50456809       8.53788764       1.13644927
Cl     -11.78733930       9.33496660       0.31138134
C       -9.88942898       7.43148745       0.55076835
C       -8.84166771       6.79694474       1.21815711
Cl      -8.07455329       5.44342829       0.47172082
H       -1.13056269       0.88645475       3.63772506
H       -2.54173359       2.30890391       5.05556978
H       -4.02261710       4.32512437       1.53146436
H       -2.62370582       2.89172603       0.13176976
H       -2.89829229       5.04088840       7.86871430
H       -3.98816704       6.44740168       9.57284810
H       -7.24331084       7.17825353       6.87956918
H       -5.89053771       4.57710771       2.92769961
H       -8.69758282       8.76491858       4.00760373
H      -10.56468555       9.87982261       2.82911257
H      -10.21960333       7.07415947      -0.42081941
C        1.79119667      -1.79119667       1.79119667
C        2.77686780      -2.58300402       1.21352391
C        3.58407872      -3.38537514       2.02655291
C        3.42399643      -3.41919482       3.42624436
C        2.42037522      -2.60053503       3.97907868
C        1.60929791      -1.79441528       3.17054419
C        4.29764489      -4.27081509       4.26180994
N        5.54340811      -4.48374545       3.77520927
C        6.41990676      -5.23130842       4.46143259
C        7.68463035      -5.40481966       3.91528595
C        8.67174375      -6.15382767       4.55777608
C        8.38585877      -6.74360404       5.77918966
Br       9.71068239      -7.75400442       6.66903913
C        7.12449924      -6.58868003       6.35148096
C        6.11577467      -5.83128942       5.69827205
C        4.80847605      -5.60315498       6.18828448
C        3.89502984      -4.82880989       5.46256976
C        4.35189702      -6.18605310       7.47381043
O        4.56681063      -7.32958886       7.83573728
O        3.69405221      -5.18921148       8.17401315
C        3.19121591      -5.52672727       9.44195117
C        4.05557732      -5.95528011      10.45178667
C        3.54910868      -6.19860648      11.72934288
C        2.19283425      -5.99511106      11.99095970
Cl       1.58175801      -6.27710026      13.57482897
C        1.33088486      -5.55370420      10.98709571
C        1.83403073      -5.31450315       9.70823568
Cl       0.76112390      -4.74681920       8.48175930
H        2.93226721      -2.58453050       0.13794479
H        4.35477896      -3.99574587       1.55568245
H        2.26531629      -2.55870254       5.05518701
H        0.84687731      -1.17042294       3.62990136
H        7.91132437      -4.93832362       2.95824700
H        9.64917416      -6.26368066       4.09556200
H        6.92678866      -7.06459366       7.30975124
H        2.88241436      -4.68611179       5.82681888
H        5.11364813      -6.10260904      10.25384796
H        4.21668199      -6.53986690      12.51707184
H        0.27880813      -5.39011759      11.20401766
C       -0.00445707       0.01189536      -1.78238275
H       -0.66409135       0.67374010      -2.43557963
H        0.65740317      -0.63156657      -2.45157240
C       -0.90989263      -0.90692880      -0.91072765
C        0.90977584       0.90977584      -0.90977584
C       -0.00465871       1.77757030       0.00794375
H       -0.66225468       2.44313916      -0.64384735
H        0.64322798       2.43503045       0.67728295
C       -1.78241447       0.00034974      -0.00472694
H       -2.45427497      -0.65498947       0.64260836
H       -2.43311707       0.67328779      -0.65473579
C       -0.91132561       0.90220522       0.91563759
C       -0.01476271      -0.02253852       1.78660255
H       -0.67934791      -0.69751639       2.42135241
H        0.63392994       0.61504881       2.47327442
C        0.01484550      -1.77751727      -0.01636693
H        0.67870853      -2.42144646      -0.68295456
H       -0.62264859      -2.45592969       0.64226336
C        1.78714474       0.01002794       0.00389507
H        2.44202412       0.67113390       0.66197326
H        2.45385902      -0.65136977      -0.64189061
C        0.91606151      -0.90478549       0.90901405
