181
Properties=species:S:1:pos:R:3 pbc="F F F"
C        0.00000000       0.00000000       0.00000000
C        0.88110681       0.88110681      -0.88110681
C        1.76378069       1.78370229      -0.29794301
C        2.57284211       2.58587068      -1.11068479
C        2.52271682       2.49951767      -2.51533175
C        1.60705612       1.58578624      -3.07328926
C        0.79510120       0.78036515      -2.26589692
C        3.39875822       3.34337649      -3.35531239
N        3.71992332       4.55554783      -2.84696205
C        4.50651015       5.39139048      -3.54384788
C        4.80036810       6.62385229      -2.97511069
C        5.60082115       7.56673769      -3.62283594
C        6.11806160       7.27081210      -4.87389890
Br       7.19692447       8.53592458      -5.76995719
C        5.84184575       6.04206051      -5.46993574
C        5.03442644       5.07612320      -4.81136201
C        4.69346681       3.80157983      -5.32260864
C        3.88367176       2.93152078      -4.58379663
C        5.20523502       3.32196673      -6.63211817
O        6.33761529       3.50400507      -7.04216358
O        4.16781271       2.65152990      -7.26677342
C        4.33972831       2.05745161      -8.53286147
C        5.06306790       2.65255800      -9.55948501
C        5.12515209       2.02271892     -10.80469693
C        4.45269834       0.80978643     -11.03548103
C        4.49831974       0.17411307     -12.28655736
C        3.81614327      -1.02453573     -12.50400953
C        3.08214773      -1.60449719     -11.47365975
C        3.02759518      -0.98737400     -10.22297362
C        3.70637403       0.21985560      -9.98832838
C        3.65519657       0.85791236      -8.73967147
H        1.83382174       1.87532697       0.78231356
H        3.25806355       3.28761774      -0.63596967
H        1.49696934       1.49790692      -4.15224428
H        0.09956780       0.08552401      -2.72914670
H        4.39131153       6.85980310      -1.99469119
H        5.80656735       8.51932177      -3.14123373
H        6.26146399       5.83588702      -6.45260136
H        3.65919195       1.93818987      -4.95792660
H        5.57669105       3.59824366      -9.41594373
H        5.70018020       2.49138580     -11.60045827
H        5.06531954       0.61157233     -13.10529899
H        3.85823002      -1.50364916     -13.47883282
H        2.55050479      -2.53746480     -11.64291070
H        2.44809508      -1.45681871      -9.43123910
H        3.07850135       0.42536225      -7.92692177
C       -0.88110681      -0.88110681      -0.88110681
C       -0.84151525      -2.26399160      -0.73991914
C       -1.65516166      -3.06695930      -1.54727663
C       -2.52579733      -2.50876484      -2.50300407
C       -2.53001573      -1.10576086      -2.63035503
C       -1.71874403      -0.29691205      -1.82570719
C       -3.38998576      -3.37401317      -3.33344817
N       -2.89748975      -4.60019307      -3.62475039
C       -3.61170835      -5.45135060      -4.37868956
C       -3.05545627      -6.69484400      -4.64903083
C       -3.71326955      -7.64664298      -5.43048224
C       -4.95858028      -7.34563484      -5.95855748
Br      -5.86148400      -8.61679580      -7.02452644
C       -5.54312754      -6.10673129      -5.70398318
C       -4.88125750      -5.13788143      -4.90277272
C       -5.38225346      -3.85428078      -4.58112103
C       -4.63678490      -2.97834013      -3.78386413
C       -6.72112273      -3.40060934      -5.03758785
O       -7.71745424      -4.10067808      -5.06565163
O       -6.60648393      -2.06811161      -5.41152049
C       -7.71592402      -1.33562240      -5.87849496
C       -8.67124168      -1.86772438      -6.73614486
C       -9.70185309      -1.04826867      -7.20244617
C       -9.77286422       0.30583594      -6.83093752
C      -10.79743508       1.14164491      -7.30320001
C      -10.84850751       2.48730344      -6.93441300
C       -9.87830611       3.01411901      -6.08712320
C       -8.85381688       2.19713289      -5.60651081
C       -8.78675678       0.84182847      -5.96962971
C       -7.75897886       0.00860757      -5.50240911
H       -0.18584676      -2.73077362      -0.01021477
H       -1.61032987      -4.14854247      -1.42277862
H       -3.15531788      -0.61704315      -3.37475950
H       -1.74683329       0.78242802      -1.94983324
H       -2.07558010      -6.93127488      -4.23895084
H       -3.24197317      -8.60833308      -5.61681660
H       -6.52199830      -5.89720474      -6.13074933
H       -5.04121610      -2.01178277      -3.50230956
H       -8.63106850      -2.90474397      -7.05506596
H      -10.45003909      -1.47489896      -7.86708623
H      -11.56464991       0.74971368      -7.96725463
H      -11.64609247       3.12302103      -7.31034224
H       -9.91758198       4.06192996      -5.80029867
H       -8.10524268       2.62844202      -4.94571481
H       -6.98702453       0.40511172      -4.84887255
C       -0.88110681       0.88110681       0.88110681
C       -1.99464585       0.33803133       1.51274881
C       -2.79645601       1.14951397       2.32342760
C       -2.50116403       2.51158924       2.52481297
C       -1.37481941       3.03296278       1.85834943
C       -0.56857652       2.22656230       1.04622444
C       -3.35103059       3.34702478       3.39939172
N       -4.66053941       3.01029426       3.45159954
C       -5.50808741       3.71776562       4.21589548
C       -6.84146614       3.32953482       4.22833013
C       -7.80281446       4.00519854       4.98238177
C       -7.42140510       5.10021648       5.74115102
Br      -8.70822147       6.03238462       6.76220014
C       -6.09069248       5.51314645       5.75000308
C       -5.10725515       4.82400827       4.99064823
C       -3.73316769       5.15585860       4.92862899
C       -2.85437902       4.40506627       4.13954387
C       -3.16331458       6.27755124       5.71845410
O       -3.47335126       6.54480174       6.86563094
O       -2.24249364       6.93245360       4.91116880
C       -1.50977066       8.04145672       5.37881401
C       -2.06434121       9.03877456       6.17199514
C       -1.28117063      10.13721318       6.53418413
C        0.04851344      10.25387328       6.09260596
C        0.84100515      11.35941642       6.44057890
C        2.15648621      11.46689914       5.98520414
C        2.69755767      10.47004944       5.17881852
C        1.92471977       9.36303458       4.82488000
C        0.59896799       9.24073220       5.27279380
C       -0.19455782       8.13875283       4.91946975
H       -2.25165679      -0.70975907       1.38493744
H       -3.66510640       0.70665016       2.80989440
H       -1.11486824       4.08589477       1.94635752
H        0.29343284       2.66090456       0.54676680
H       -7.14367840       2.47262278       3.62950464
H       -8.83583994       3.66724829       4.96403462
H       -5.81897573       6.37576599       6.35521065
H       -1.79395837       4.63404026       4.12730980
H       -3.09399868       8.98483946       6.51204030
H       -1.72066152      10.90943932       7.16192344
H        0.43661419      12.14992203       7.06888303
H        2.75708919      12.33012331       6.26037957
H        3.72157484      10.55380264       4.82372290
H        2.36630695       8.59524779       4.19357463
H        0.20755266       7.35631869       4.28201932
C        0.88110681      -0.88110681       0.88110681
C        1.14903597      -0.50387784       2.19251219
C        1.95378588      -1.31806395       2.99754777
C        2.49968424      -2.52304749       2.51483451
C        2.22081768      -2.86768378       1.17763015
C        1.41641972      -2.05775992       0.36718362
C        3.33264721      -3.37745908       3.38734081
N        4.05864167      -2.73349397       4.33029757
C        4.84871053      -3.42921335       5.16382463
C        5.57386542      -2.71599495       6.10947072
C        6.43035860      -3.34494717       7.01508900
C        6.56812638      -4.72313060       6.97151561
Br       7.72755673      -5.59219940       8.18305011
C        5.85285578      -5.46624747       6.03473876
C        4.97395993      -4.83161783       5.11633389
C        4.20152095      -5.48740677       4.12872755
C        3.37075748      -4.75561903       3.27261266
C        4.20888244      -6.96588874       3.98454874
O        4.21680263      -7.75261976       4.91436155
O        4.20613973      -7.25393416       2.62604214
C        4.19425812      -8.58159288       2.15419039
C        4.93859771      -9.60118158       2.73533163
C        4.91860118     -10.87388992       2.16007683
C        4.17300976     -11.12917459       0.99578146
C        4.15526759     -12.40147723       0.40224534
C        3.41893809     -12.63707026      -0.76039127
C        2.68900494     -11.60535961      -1.34305425
C        2.69360336     -10.33485835      -0.76526691
C        3.43083820     -10.08063079       0.40308902
C        3.45325493      -8.80732039       0.99220508
H        0.74175511       0.41647951       2.60155956
H        2.15320322      -1.00608952       4.02235823
H        2.64222024      -3.76859390       0.73630640
H        1.22092518      -2.35350047      -0.66018714
H        5.47042405      -1.63319667       6.14218510
H        6.97885688      -2.74852562       7.73974036
H        5.97971593      -6.54698482       6.02325161
H        2.74644357      -5.26369040       2.54517446
H        5.53865595      -9.42868520       3.62353729
H        5.49776314     -11.66826645       2.62599468
H        4.71993367     -13.22100064       0.84125655
H        3.41709639     -13.62660925      -1.21029196
H        2.11607447     -11.78844157      -2.24856535
H        2.11679327      -9.54222270      -1.23650050
H        2.89815071      -7.98733786       0.54529678
