157
Properties=species:S:1:pos:R:3 pbc="F F F"
C        0.00000000       0.00000000       0.00000000
Cl       7.15252545       7.27446871      -7.03944363
C        6.15334103       6.47131971      -5.89324077
C        6.17590719       5.08411358      -5.80314181
C        5.36454479       4.43557418      -4.86522910
C        4.52220550       5.15603747      -3.99673999
C        4.51172508       6.55921284      -4.12383954
C        5.32173370       7.21252340      -5.06026453
C        3.68654919       4.45239989      -3.00079463
N        3.26404840       3.21517972      -3.34864816
C        2.49916308       2.50357866      -2.50642708
C        2.09587418       1.24030373      -2.91883921
C        1.29344518       0.42214538      -2.12214443
C        0.88100471       0.88100471      -0.88100471
C        1.26913598       2.14484850      -0.43950453
C        2.09264105       2.97816219      -1.24276201
C        2.54841359       4.27241606      -0.89333525
C        3.35790118       5.00034919      -1.77376613
C        2.22666855       4.89232869       0.42024954
O        2.17429413       4.29258588       1.47967339
O        2.01184980       6.24633100       0.20385512
C        1.74856662       7.12723806       1.26908085
C        0.88288127       6.81621899       2.31456312
C        0.62657116       7.77525175       3.29797661
C        1.22573677       9.03361910       3.21650226
Br       0.86500068      10.33265531       4.54148424
C        2.08087049       9.34595775       2.15991498
C        2.33967853       8.38924231       1.17753387
H        6.81783559       4.49795001      -6.45512871
H        5.39575799       3.34778528      -4.81022846
H        3.85655411       7.16925090      -3.50546683
H        5.29275281       8.29658270      -5.13528694
H        2.41581697       0.87992509      -3.89513230
H        1.00247304      -0.56092597      -2.48294127
H        0.93050426       2.47762183       0.53897612
H        3.74671641       5.97297550      -1.48853563
H        0.40044802       5.84511165       2.37817296
H       -0.04403482       7.53378380       4.11898484
H        2.54277302      10.32720497       2.09015933
H        2.99602979       8.63074657       0.34675749
Cl      -7.14379005      -7.27842750      -7.04422022
C       -6.13188002      -6.48037344      -5.90564804
C       -6.20163666      -5.09923207      -5.76229386
C       -5.37953641      -4.45508647      -4.83072518
C       -4.47916160      -5.17434005      -4.02148131
C       -4.42229288      -6.57053585      -4.20194873
C       -5.24281070      -7.21944902      -5.13226191
C       -3.63261360      -4.47637046      -3.03075964
N       -3.26903737      -3.21215937      -3.34667955
C       -2.49927712      -2.50330739      -2.50658431
C       -2.15828309      -1.21144900      -2.88528502
C       -1.35664549      -0.39310313      -2.08798637
C       -0.88100471      -0.88100471      -0.88100471
C       -1.20573928      -2.17391866      -0.47383107
C       -2.02811921      -3.00795784      -1.27748820
C       -2.42277969      -4.33044163      -0.96094358
C       -3.23793195      -5.05589815      -1.83818641
C       -2.02908536      -4.98525396       0.31559162
O       -1.95853725      -4.42302809       1.39435872
O       -1.77333925      -6.32134374       0.04035731
C       -1.43790853      -7.22993848       1.06112319
C       -0.54516511      -6.92471416       2.08534213
C       -0.21694567      -7.90860432       3.02170369
C       -0.77243587      -9.18495535       2.91453762
Br      -0.31458358     -10.51688958       4.17530141
C       -1.65501485      -9.49069230       1.87879389
C       -1.98560506      -8.50924858       0.94346667
H       -6.88877347      -4.51440205      -6.36773879
H       -5.44832865      -3.37199415      -4.73344893
H       -3.72233390      -7.17747861      -3.63145933
H       -5.17714237      -8.29817065      -5.24930943
H       -2.52792549      -0.82805465      -3.83489422
H       -1.11562929       0.61280040      -2.42165945
H       -0.81835860      -2.52911773       0.47832636
H       -3.57989994      -6.05231973      -1.57600787
H       -0.09643698      -5.93899583       2.16804610
H        0.47502275      -7.67203201       3.82624512
H       -2.08310341     -10.48553431       1.78881906
H       -2.66370724      -8.74496053       0.12864891
Cl      -7.25767399       7.18173123       7.02703257
C       -6.41628098       6.24905260       5.85256792
C       -5.68245510       5.13539967       6.24530781
C       -5.00358682       4.37677875       5.28498249
C       -5.04859281       4.70905026       3.91733990
C       -5.78863109       5.85175595       3.55439043
C       -6.46963344       6.61360893       4.51127926
C       -4.33901787       3.88371893       2.91700690
N       -3.20920649       3.27443577       3.34423403
C       -2.49929717       2.50660853       2.50326312
C       -1.34857571       1.90759071       2.99885069
C       -0.53544642       1.09641625       2.20587232
C       -0.88100471       0.88100471       0.88100471
C       -2.02991783       1.46899881       0.35457238
C       -2.86548704       2.28858156       1.15949666
C       -4.05320212       2.92962357       0.73133921
C       -4.79388241       3.71694402       1.62119008
C       -4.58178253       2.76670396      -0.64973880
O       -4.54725418       1.73142952      -1.29147709
O       -5.10978472       3.98828787      -1.04374690
C       -5.74931536       4.14475489      -2.28734642
C       -5.25370856       3.60006500      -3.46923643
C       -5.91602445       3.85974138      -4.67191953
C       -7.05333066       4.66943062      -4.67990767
Br      -7.93784944       5.02953454      -6.31121222
C       -7.53805830       5.22478230      -3.49592734
C       -6.87928046       4.96548103      -2.29337452
H       -5.63047656       4.84838779       7.29204996
H       -4.43337703       3.50792913       5.61246556
H       -5.83308769       6.18012321       2.51806094
H       -7.03296966       7.49015818       4.20149462
H       -1.07365895       2.07891650       4.03829891
H        0.35552728       0.64528759       2.63472803
H       -2.27579481       1.28147862      -0.68812346
H       -5.72900435       4.17097883       1.30824436
H       -4.36100941       2.98128102      -3.47490372
H       -5.53539638       3.43113290      -5.59576514
H       -8.41884820       5.86137870      -3.50040825
H       -7.24592191       5.40422047      -1.37012351
Cl       7.28414172      -7.12856753       7.05372853
C        6.48551823      -6.11817443       5.91420884
C        5.43671292      -5.30259671       6.32385295
C        4.79334002      -4.47843802       5.39357002
C        5.18656018      -4.44660750       4.04181528
C        6.24260132      -5.29590169       3.65627445
C        6.88947283      -6.12185844       4.58319037
C        4.50540017      -3.55527924       3.07906430
N        3.19884823      -3.30449789       3.32453017
C        2.50032747      -2.50721555       2.50162580
C        1.16306169      -2.28718561       2.80476982
C        0.34646231      -1.48089537       2.01037731
C        0.88100471      -0.88100471       0.88100471
C        2.21987972      -1.08330027       0.55030903
C        3.05750729      -1.89612080       1.35993716
C        4.42703936      -2.16544593       1.12167961
C        5.14998863      -2.98727742       1.99475045
C        5.15925532      -1.56555040      -0.02605802
O        4.99633277      -0.43126893      -0.44039508
O        6.03970857      -2.52360782      -0.50899070
C        6.92922540      -2.23900014      -1.56150171
C        6.55612655      -1.52707263      -2.69866205
C        7.48476372      -1.34604570      -3.72696312
C        8.76574194      -1.88920919      -3.61209751
Br      10.01415295      -1.65386051      -5.01184170
C        9.13074504      -2.61390471      -2.47773649
C        8.20558332      -2.79456118      -1.44875753
H        5.11103197      -5.29936733       7.36051500
H        3.97313669      -3.84690103       5.73373402
H        6.56933107      -5.34242266       2.61951811
H        7.70158616      -6.76642747       4.25660882
H        0.74064266      -2.76078870       3.68944300
H       -0.69466815      -1.33372280       2.28543369
H        2.61137578      -0.59922535      -0.34145116
H        6.21098674      -3.15721528       1.84002552
H        5.55714352      -1.11368131      -2.80343812
H        7.19884693      -0.78552961      -4.61361241
H       10.12482478      -3.04402394      -2.38903006
H        8.48085130      -3.36728718      -0.56811961
