138
Properties=species:S:1:pos:R:3 pbc="F F F"
C        1.79251181       1.79251181      -1.79251181
C        3.06266987       1.32878336      -2.18123703
C        3.89629501       2.12372306      -2.97344525
C        3.41620648       3.35756245      -3.35847176
N        4.08628813       4.32571241      -4.09124638
C        3.31971392       5.47722059      -4.22185141
O        3.68921759       6.55050920      -4.67260296
C        1.92064857       5.18062686      -3.59405971
O        1.63363873       6.09539580      -2.53913484
C        0.80331691       5.24987413      -4.63171659
C        1.00814309       4.27938229      -5.78238069
O        1.91894747       4.50618289      -6.58371960
C        0.15657480       3.10276265      -5.93893658
C        0.26681540       2.15369087      -6.94525197
C       -0.70298102       1.11323104      -6.83758171
C       -1.51311482       1.31242177      -5.75095891
Br      -2.90325368       0.15444519      -5.26896005
S       -1.13653417       2.71584258      -4.88587932
C        2.14561476       3.81503777      -2.99948366
C        1.32241640       3.04495052      -2.19484455
H        3.41107334       0.35141431      -1.85512340
H        4.88365067       1.77958423      -3.25992037
H        5.04041939       4.26756482      -4.41498191
H        1.90525024       6.97599048      -2.86225423
H       -0.17309859       5.12993866      -4.15486527
H        0.76749754       6.25735340      -5.06933549
H        1.01799385       2.21034390      -7.72654080
H       -0.78725036       0.27720756      -7.52135449
H        0.35083142       3.41311010      -1.87992040
C       -1.79251181      -1.79251181      -1.79251181
C       -2.47519686      -1.21745814      -2.88003526
C       -3.30240703      -1.99914228      -3.69191400
C       -3.40492810      -3.33996902      -3.38734357
N       -4.20333292      -4.28326423      -4.01664977
C       -4.11060637      -5.51935008      -3.38882946
O       -4.80364771      -6.50088138      -3.60780066
C       -3.02021178      -5.39794822      -2.27717514
O       -3.56463438      -5.70702992      -0.99650506
C       -1.82745833      -6.31187188      -2.54557741
C       -1.15921246      -6.03021757      -3.88047604
O       -1.76495749      -6.33109133      -4.91280115
C        0.16351373      -5.41381532      -3.94797244
C        0.85358431      -5.10718013      -5.11216243
C        2.12363674      -4.50692485      -4.86454362
C        2.34885071      -4.37989233      -3.51922424
Br       3.90343452      -3.62811329      -2.79547279
S        1.08170947      -4.97582198      -2.57107521
C       -2.70964438      -3.92480250      -2.32568930
C       -1.90703794      -3.15394546      -1.50122806
H       -2.37457369      -0.15469382      -3.08834353
H       -3.84601394      -1.55762534      -4.51951600
H       -4.85011400      -4.10277640      -4.77007572
H       -4.12198526      -6.49891904      -1.12259066
H       -1.12149119      -6.27870463      -1.71150952
H       -2.16264420      -7.35814346      -2.57339876
H        0.45562094      -5.30900194      -6.10149755
H        2.81651142      -4.19225011      -5.63557299
H       -1.39689305      -3.59603689      -0.65093198
C       -1.79251181       1.79251181       1.79251181
C       -2.58182282       1.19728386       2.79358357
C       -3.41087264       1.98012964       3.60246103
C       -3.40784208       3.34135575       3.38304285
N       -4.18571443       4.29470157       4.02283092
C       -3.97310337       5.55887661       3.48680593
O       -4.61600856       6.56908734       3.72723386
C       -2.82013944       5.43468013       2.44051557
O       -3.25646879       5.85991801       1.15178257
C       -1.59289441       6.24742223       2.84459099
C       -1.03519276       5.83773221       4.19698110
O       -1.68890847       6.11299278       5.20694871
C        0.23844988       5.13060099       4.30612292
C        0.82780621       4.70533719       5.48822727
C        2.07124546       4.03771398       5.28136321
C        2.37810651       3.98093387       3.94743850
Br       3.92737570       3.17330800       3.27421926
S        1.21784233       4.71949912       2.96353094
C       -2.60711172       3.94384092       2.40918354
C       -1.80102992       3.17422726       1.58695429
H       -2.56271482       0.11913468       2.93576154
H       -4.03576502       1.52489925       4.36249100
H       -4.89187469       4.11101618       4.72007525
H       -3.76997094       6.67801612       1.29550789
H       -0.83584878       6.21946559       2.05639097
H       -1.86251066       7.31005139       2.92162437
H        0.37763162       4.87068442       6.46182575
H        2.68937073       3.62906198       6.07162044
H       -1.20789177       3.63371560       0.80225456
C        1.79251181      -1.79251181       1.79251181
C        2.76168746      -1.19324508       2.61775771
C        3.59333892      -1.97897457       3.42114982
C        3.41211364      -3.34503678       3.37509026
N        4.15330167      -4.31122216       4.03872308
C        3.73666416      -5.59051441       3.69160735
O        4.28861876      -6.64017157       3.98353942
C        2.48301559      -5.44006161       2.77225794
O        2.70520646      -6.05661719       1.50634572
C        1.23337449      -6.04340518       3.40812796
C        0.89773880      -5.41997229       4.75219498
O        1.63786957      -5.66106532       5.70991507
C       -0.26604611      -4.55165929       4.91266085
C       -0.65242606      -3.92778932       6.09039498
C       -1.83026159      -3.13721881       5.94087451
C       -2.29306030      -3.19074327       4.65258289
Br      -3.81514283      -2.27563179       4.05966260
S       -1.35375755      -4.17283115       3.64611412
C        2.43427204      -3.94701770       2.57884644
C        1.62213309      -3.17868171       1.76139667
H        2.88007262      -0.11208319       2.62545524
H        4.35479607      -1.52392490       4.04443430
H        4.95695668      -4.14101082       4.62499862
H        3.13878969      -6.91141797       1.69328730
H        0.39164566      -6.00867056       2.71138911
H        1.39107009      -7.11624804       3.58686829
H       -0.10534093      -4.03913017       7.02108932
H       -2.29576827      -2.56955823       6.73752173
H        0.88843283      -3.64462775       1.11080134
C       -0.00445707       0.01189536      -1.78238275
H       -0.66409135       0.67374010      -2.43557963
H        0.65740317      -0.63156657      -2.45157240
C       -0.90989263      -0.90692880      -0.91072765
C        0.90977584       0.90977584      -0.90977584
C       -0.00465871       1.77757030       0.00794375
H       -0.66225468       2.44313916      -0.64384735
H        0.64322798       2.43503045       0.67728295
C       -1.78241447       0.00034974      -0.00472694
H       -2.45427497      -0.65498947       0.64260836
H       -2.43311707       0.67328779      -0.65473579
C       -0.91132561       0.90220522       0.91563759
C       -0.01476271      -0.02253852       1.78660255
H       -0.67934791      -0.69751639       2.42135241
H        0.63392994       0.61504881       2.47327442
C        0.01484550      -1.77751727      -0.01636693
H        0.67870853      -2.42144646      -0.68295456
H       -0.62264859      -2.45592969       0.64226336
C        1.78714474       0.01002794       0.00389507
H        2.44202412       0.67113390       0.66197326
H        2.45385902      -0.65136977      -0.64189061
C        0.91606151      -0.90478549       0.90901405
