190
Properties=species:S:1:pos:R:3 pbc="F F F"
C        1.76770957       1.76770957      -1.76770957
C        1.16994343       2.86632398      -2.52012008
H        0.10018295       3.04394947      -2.48049978
C        2.02390982       3.80502281      -3.23715245
H        1.60195889       4.38556320      -4.04402244
C        3.45227264       3.80379346      -2.96435363
O        4.27112619       4.87622036      -3.21306548
C        3.68986198       6.16264911      -3.44592896
C        3.00579795       6.78073003      -2.21733182
O        3.95300481       7.17765305      -1.22253745
C        4.12172039       6.19216182      -0.20182211
C        5.29359607       6.57697127       0.70413225
O        5.96122497       5.40939392       1.19208640
C        6.90885924       4.90801635       0.24280510
C        7.19596378       3.43797651       0.53388908
O        8.06788716       2.89743822      -0.45783245
C        7.50192700       1.97092010      -1.30333545
C        8.42748671       0.94849793      -1.75924769
H        9.28199120       0.68080554      -1.15590551
C        8.30066382       0.45299779      -3.12127011
H        8.91999939      -0.38345798      -3.43022723
C        7.41064641       1.09944406      -4.08220667
C        6.51348823       2.01989978      -3.65380621
C        6.44885082       2.37242492      -2.23675032
O        5.28046908       2.85497055      -1.67943319
C        4.06985103       2.65059658      -2.30929762
C        3.21669086       1.62486863      -1.71503653
H        3.67064908       0.79676517      -1.19152121
Br       7.56227734       0.61618555      -5.87195944
H        3.00655124       6.11527267      -4.30301676
H        4.52267498       6.81092078      -3.74604624
H        2.50066233       7.69480978      -2.53999257
H        2.24633381       6.12557469      -1.78246703
H        3.20190705       6.13452741       0.39401307
H        4.28247963       5.20608017      -0.64197637
H        6.00351477       7.24645990       0.20631927
H        4.90531663       7.11812862       1.57499717
H        6.54890025       5.02523237      -0.78453367
H        7.83175363       5.49363961       0.32204402
H        7.71205256       3.36514893       1.49991354
H        6.27146099       2.85834991       0.65495539
H        5.85949073       2.53189177      -4.34863109
C       -1.76770957      -1.76770957      -1.76770957
C       -1.18934264      -2.92689957      -2.44014529
H       -0.13215148      -3.15084381      -2.34163691
C       -2.05356073      -3.85889866      -3.15362569
H       -1.62350131      -4.49574277      -3.91230044
C       -3.49116172      -3.77981371      -2.94944431
O       -4.34797795      -4.82456033      -3.18787374
C       -3.81861263      -6.14568494      -3.33414248
C       -3.22124592      -6.73503291      -2.04758097
O       -4.23047311      -7.04073499      -1.08198722
C       -4.39828847      -6.00114309      -0.11627277
C       -5.62708624      -6.28878086       0.74943202
O       -6.25987121      -5.07018865       1.15152737
C       -7.13847736      -4.57202813       0.13643501
C       -7.36822718      -3.07828049       0.34645647
O       -8.16749528      -2.54650248      -0.70916007
C       -7.52026830      -1.68793186      -1.56798239
C       -8.37446205      -0.64738034      -2.11338994
H       -9.24178110      -0.31274499      -1.56417616
C       -8.16247125      -0.22352762      -3.48893286
H       -8.72662839       0.62454459      -3.86468483
C       -7.26149769      -0.95472608      -4.37607337
C       -6.42954213      -1.89355120      -3.86410089
C       -6.44618332      -2.18081596      -2.43102678
O       -5.32860857      -2.68886393      -1.79740033
C       -4.08227873      -2.56989234      -2.37757416
C       -3.20914738      -1.55685828      -1.79059036
H       -3.64649405      -0.68501739      -1.32742402
Br      -7.30851243      -0.55079517      -6.19111473
H       -3.09559829      -6.17023309      -4.15900929
H       -4.66683919      -6.76900725      -3.64379556
H       -2.74604689      -7.68543041      -2.30398738
H       -2.45200205      -6.09509816      -1.60727533
H       -3.50478795      -5.95705809       0.51942465
H       -4.49178342      -5.03084100      -0.60791175
H       -6.34471493      -6.94826371       0.24932325
H       -5.30495459      -6.80496046       1.66146696
H       -6.73821388      -4.75422712      -0.86622530
H       -8.09083946      -5.11069400       0.19818425
H       -7.92360964      -2.93620007       1.28252176
H       -6.42364346      -2.53613954       0.48492749
H       -5.76976593      -2.46720321      -4.50304445
C       -1.76770957       1.76770957       1.76770957
C       -3.21347827       1.77543148       1.56747774
H       -3.66407589       1.18177446       0.77878185
C       -4.07259121       2.49058838       2.50290549
H       -5.06265353       2.78290381       2.18598718
C       -3.51164253       2.94271854       3.76605867
O       -4.26985155       3.21352997       4.87703050
C       -5.61960221       2.74270848       4.93612936
C       -5.75439078       1.21571163       5.03375739
O       -5.32540788       0.72241732       6.30537012
C       -3.97529598       0.25518093       6.28522742
C       -3.51070361      -0.05442486       7.71015634
O       -2.11225203       0.21052549       7.85575497
C       -1.86208126       1.59630131       8.11568791
C       -0.42150988       1.93480315       7.74373817
O       -0.18189567       3.33158231       7.90967985
C        0.01291186       4.04183284       6.74726156
C        0.92140764       5.16609689       6.89054308
H        1.68655102       5.15297383       7.65227945
C        0.64709489       6.38194068       6.14008593
H        1.37915264       7.18336173       6.16255955
C       -0.61164077       6.55984586       5.42081052
C       -1.44027899       5.50254449       5.24437073
C       -1.07931323       4.19347421       5.78523862
O       -1.56633911       3.03290669       5.21562702
C       -2.06092363       3.04137486       3.92744674
C       -1.18780459       2.45438701       2.91440442
H       -0.11769940       2.48625868       3.05497739
Br      -1.01499882       8.25786624       4.77755726
H       -6.19286603       3.14188544       4.09008920
H       -6.04713228       3.19051572       5.84199399
H       -6.81578313       0.96751080       4.95217075
H       -5.23515196       0.69330586       4.22591771
H       -3.92230446      -0.65653452       5.67665146
H       -3.31992248       0.99274374       5.81786995
H       -4.08658682       0.49223226       8.46483631
H       -3.66236108      -1.12204926       7.90813626
H       -2.55476593       2.24004411       7.56385625
H       -2.03072413       1.79192069       9.18070439
H        0.25244159       1.40244363       8.42728590
H       -0.16331584       1.57092594       6.74061373
H       -2.39044792       5.61279189       4.73677379
C        1.76770957      -1.76770957       1.76770957
C        3.16861112      -1.97404456       1.41373180
H        3.58123988      -1.52940622       0.51398610
C        4.05273461      -2.68283741       2.33051305
H        4.95882232      -3.12686100       1.94586121
C        3.60471187      -2.92270422       3.69300364
O        4.45914949      -3.16169380       4.73956874
C        5.84916105      -2.85596577       4.59331323
C        6.16031397      -1.35545569       4.48809013
O        5.94643456      -0.67789305       5.72886772
C        4.66295620      -0.05394579       5.79880234
C        4.41271210       0.46345734       7.21718033
O        3.02211852       0.38906443       7.54547840
C        2.65627049      -0.91908620       7.99871380
C        1.15278616      -1.11722649       7.83003855
O        0.78465252      -2.44775611       8.19074920
C        0.37290838      -3.25112424       7.15214992
C       -0.62817939      -4.23343466       7.52997707
H       -1.28834760      -4.04393100       8.36311886
C       -0.58176850      -5.54812619       6.90857403
H       -1.38843761      -6.24669597       7.10851028
C        0.55258317      -5.95596510       6.08374887
C        1.46354428      -5.03355072       5.69009923
C        1.31615226      -3.63910502       6.10276878
O        1.85324392      -2.61581884       5.34581006
C        2.18259270      -2.82493390       4.02221863
C        1.26120131      -2.24931493       3.04607979
H        0.21927933      -2.13450364       3.30515249
Br       0.68692270      -7.75044222       5.61305741
H        6.26769652      -3.41200741       3.74513674
H        6.33301750      -3.25142488       5.49519961
H        7.22440979      -1.24937139       4.26168349
H        5.60610379      -0.86451147       3.68376027
H        4.63546344       0.78568901       5.09264696
H        3.87894704      -0.75222945       5.49935968
H        5.01365643      -0.06412959       7.96586937
H        4.70277624       1.51965913       7.26533097
H        3.20199159      -1.69897527       7.45769944
H        2.93166592      -1.01675679       9.05492650
H        0.62953756      -0.43516954       8.51258084
H        0.81494016      -0.83587395       6.82404140
H        2.32676494      -5.31384160       5.09940705
C       -0.00445707       0.01189536      -1.78238275
H       -0.66409135       0.67374010      -2.43557963
H        0.65740317      -0.63156657      -2.45157240
C       -0.90989263      -0.90692880      -0.91072765
C        0.90977584       0.90977584      -0.90977584
C       -0.00465871       1.77757030       0.00794375
H       -0.66225468       2.44313916      -0.64384735
H        0.64322798       2.43503045       0.67728295
C       -1.78241447       0.00034974      -0.00472694
H       -2.45427497      -0.65498947       0.64260836
H       -2.43311707       0.67328779      -0.65473579
C       -0.91132561       0.90220522       0.91563759
C       -0.01476271      -0.02253852       1.78660255
H       -0.67934791      -0.69751639       2.42135241
H        0.63392994       0.61504881       2.47327442
C        0.01484550      -1.77751727      -0.01636693
H        0.67870853      -2.42144646      -0.68295456
H       -0.62264859      -2.45592969       0.64226336
C        1.78714474       0.01002794       0.00389507
H        2.44202412       0.67113390       0.66197326
H        2.45385902      -0.65136977      -0.64189061
C        0.91606151      -0.90478549       0.90901405
