169
Properties=species:S:1:pos:R:3 pbc="F F F"
C        0.00000000       0.00000000       0.00000000
C        0.85780554       0.85780554      -0.85780554
C        0.26003941       1.95641995      -1.61021606
H       -0.80972108       2.13404545      -1.57059576
C        1.11400580       2.89511879      -2.32724842
H        0.69205486       3.47565917      -3.13411841
C        2.54236862       2.89388943      -2.05444961
O        3.36122217       3.96631633      -2.30316145
C        2.77995796       5.25274508      -2.53602493
C        2.09589393       5.87082600      -1.30742779
O        3.04310079       6.26774903      -0.31263343
C        3.21181637       5.28225780       0.70808191
C        4.38369205       5.66706724       1.61403628
O        5.05132095       4.49948990       2.10199043
C        5.99895521       3.99811232       1.15270912
C        6.28605975       2.52807248       1.44379311
O        7.15798314       1.98753420       0.45207157
C        6.59202297       1.06101608      -0.39343142
C        7.51758269       0.03859391      -0.84934366
H        8.37208718      -0.22909848      -0.24600149
C        7.39075980      -0.45690623      -2.21136609
H        8.01009536      -1.29336200      -2.52032320
C        6.50074239       0.18954004      -3.17230265
C        5.60358420       1.10999575      -2.74390219
C        5.53894679       1.46252089      -1.32684630
O        4.37056506       1.94506653      -0.76952917
C        3.15994701       1.74069255      -1.39939360
C        2.30678684       0.71496461      -0.80513251
H        2.76074506      -0.11313885      -0.28161719
Br       6.65237332      -0.29371848      -4.96205541
H        2.09664721       5.20536865      -3.39311273
H        3.61277095       5.90101675      -2.83614222
H        1.59075831       6.78490576      -1.63008854
H        1.33642979       5.21567066      -0.87256301
H        2.29200303       5.22462338       1.30391709
H        3.37257561       4.29617614       0.26792765
H        5.09361074       6.33655587       1.11622329
H        3.99541261       6.20822460       2.48490119
H        5.63899622       4.11532835       0.12537036
H        6.92184961       4.58373558       1.23194805
H        6.80214853       2.45524490       2.40981757
H        5.36155697       1.94844589       1.56485942
H        4.94958671       1.62198775      -3.43872707
C       -0.85780554      -0.85780554      -0.85780554
C       -2.08089917      -1.43590970      -0.30986656
H       -2.35396866      -1.26774363       0.72679217
C       -3.00439735      -2.14628596      -1.18568969
H       -3.70366018      -2.84582495      -0.75234732
C       -2.83922933      -2.02603187      -2.62544646
O       -3.84936187      -2.25643306      -3.52490503
C       -5.20237362      -2.30413313      -3.06222122
C       -5.75032449      -0.95759828      -2.56622496
O       -5.94924764      -0.03443524      -3.63980036
C       -4.85068405       0.86496663      -3.80027482
C       -5.02563430       1.67548781      -5.08657652
O       -3.75536375       1.97793168      -5.67138835
C       -3.26869552       0.89134818      -6.46701107
C       -1.75568990       1.01011210      -6.62476133
O       -1.24187645      -0.11426256      -7.33730676
C       -0.46689590      -0.97977455      -6.59980002
C        0.58520251      -1.62500307      -7.36571970
H        0.99441817      -1.14263367      -8.24077468
C        0.92097403      -3.00702763      -7.05916605
H        1.77535249      -3.45705971      -7.55534934
C        0.09596310      -3.80378880      -6.15475937
C       -0.85538348      -3.19843560      -5.40366307
C       -1.06199102      -1.75541410      -5.51090886
O       -1.59201342      -1.03551298      -4.45763435
C       -1.57042595      -1.55155448      -3.17805273
C       -0.57356169      -0.97104982      -2.28227244
H        0.34411847      -0.57883803      -2.69450384
Br       0.40117823      -5.63727430      -6.08461418
H       -5.31005012      -3.08550169      -2.29957679
H       -5.79667049      -2.62708296      -3.92617647
H       -6.73691893      -1.13745943      -2.13137425
H       -5.12814050      -0.50959201      -1.78693096
H       -4.81835280       1.54575825      -2.94011477
H       -3.90538812       0.31893246      -3.81436844
H       -5.67329999       1.17171550      -5.81235883
H       -5.50689275       2.62959141      -4.84143468
H       -3.52651232      -0.07685246      -6.02558944
H       -3.75267945       0.92857129      -7.44952899
H       -1.53344596       1.90545782      -7.21958772
H       -1.25680305       1.17192157      -5.66026196
H       -1.49703374      -3.76923135      -4.74403644
C       -0.85780554       0.85780554       0.85780554
C       -0.38141115       1.27119118       2.17407309
H        0.58175162       0.93381395       2.54285780
C       -1.14643881       2.23665403       2.95328016
H       -0.99652320       2.28365405       4.02165520
C       -2.21066158       2.98099922       2.29904686
O       -2.68881777       4.18137309       2.76050908
C       -1.92862441       4.91403524       3.72606832
C       -0.60284596       5.47792413       3.19337762
O       -0.81155256       6.54596548       2.26596521
C       -0.77181869       6.10750716       0.90666640
C       -1.21271749       7.24337362      -0.01936809
O       -1.89085866       6.72605578      -1.16809402
C       -3.27168124       6.46532218      -0.89264501
C       -3.81439826       5.46024177      -1.90430090
O       -5.16352376       5.11900566      -1.58908366
C       -5.36126753       3.83127213      -1.14606919
C       -6.64984477       3.27317592      -1.51750043
H       -7.16157693       3.62729177      -2.39987851
C       -7.32511911       2.39471870      -0.57461815
H       -8.23462434       1.89315160      -0.89071938
C       -6.83697795       2.23310362       0.79250350
C       -5.61529384       2.71119393       1.13099437
C       -4.79750653       3.39789423       0.13291322
O       -3.42049234       3.42334532       0.24132309
C       -2.76511426       2.50227080       1.03264811
C       -2.08379934       1.42799831       0.31508630
H       -2.46598953       1.10495099      -0.64171712
Br      -7.93954039       1.36664141       2.01452846
H       -1.77157274       4.30113573       4.62242013
H       -2.56889122       5.75198734       4.02905137
H       -0.05897227       5.90879103       4.03798930
H        0.03685996       4.70854151       2.75298191
H        0.25469329       5.80971084       0.65769177
H       -1.40469888       5.22889689       0.76722833
H       -1.83610641       7.98288821       0.49494870
H       -0.32274513       7.77387593      -0.37788504
H       -3.41419190       6.08912410       0.12563822
H       -3.82939475       7.40613456      -0.96189217
H       -3.81728991       5.92771900      -2.89743303
H       -3.16044463       4.58345676      -1.99875795
H       -5.24032101       2.62662567       2.14335485
C        0.85780554      -0.85780554       0.85780554
C        1.82761419      -0.24134239       1.75771883
H        1.94717716       0.83684625       1.78458922
C        2.55919783      -1.06524463       2.71193054
H        3.48675565      -0.69366559       3.12141121
C        2.11336863      -2.42907083       2.94826820
O        2.40852418      -3.13509827       4.08707750
C        2.89288856      -2.43740908       5.23843034
C        1.85972964      -1.51365660       5.90076149
O        0.82158759      -2.25255422       6.54934144
C       -0.34215188      -2.39539588       5.73274825
C       -1.32274944      -3.36907365       6.39039880
O       -2.05140488      -4.10041498       5.39981031
C       -1.30868690      -5.22863800       4.92440732
C       -1.83977759      -5.65203725       3.55807947
O       -1.05154440      -6.71684066       3.02814951
C       -0.28293439      -6.39693962       1.93246524
C       -0.09619074      -7.49801780       1.00369320
H       -0.83314501      -8.28440581       0.93772939
C        1.18638336      -7.62929421       0.32954208
H        1.29344826      -8.38558808      -0.44197978
C        2.33287680      -6.81186198       0.71784629
C        2.15507913      -5.75528501       1.54711800
C        0.82191753      -5.44595895       2.06043750
O        0.48887359      -4.15918897       2.43709820
C        1.22890973      -3.08565833       1.98546510
C        0.60537427      -2.29087907       0.93063061
H       -0.08321832      -2.76508822       0.24735349
Br       4.00253992      -7.27600381       0.04216653
H        3.81278799      -1.89450486       4.98783575
H        3.17632673      -3.21726407       5.95633912
H        2.36972098      -0.94986486       6.68616677
H        1.43386781      -0.78747594       5.20331971
H       -0.82095056      -1.41444775       5.61921213
H       -0.07050941      -2.73872214       4.73261137
H       -0.82686696      -4.05379226       7.08701803
H       -2.05241897      -2.79632523       6.97482975
H       -0.23839901      -5.00702373       4.86032950
H       -1.41789271      -6.05067333       5.64085653
H       -2.86296508      -6.03017497       3.68036598
H       -1.92620314      -4.79912588       2.87222070
H        2.99172781      -5.14841359       1.87016013
