197
Properties=species:S:1:pos:R:3 pbc="F F F"
C        0.00000000       0.00000000       0.00000000
C        0.86703009       0.86703009      -0.86703009
C        1.03766328       2.22191808      -0.71950926
C        1.95005047       2.61511947      -1.73057235
C        2.25470649       1.48256024      -2.47131097
O        1.59676728       0.41114041      -1.91608320
C        3.10752706       1.21257965      -3.62819100
O        3.49946580       0.06896250      -3.87520998
N        3.54496052       2.29446606      -4.42470381
C        4.59819829       2.01872339      -5.42240768
C        4.02879297       1.73229206      -6.83000189
N        5.06512554       1.38030485      -7.80926296
C        5.41293003       0.00489205      -7.87082907
C        6.67474619      -0.43333804      -7.45294798
C        7.00522058      -1.78626239      -7.52973598
C        6.08404074      -2.70193141      -8.03630441
C        4.82466731      -2.26999952      -8.45064221
C        4.48221739      -0.92069229      -8.35379095
C        5.89002118       2.41002861      -8.30316646
O        5.80134397       3.55367608      -7.84696344
C        6.82050507       2.11426928      -9.38702004
C        7.91188511       2.83044298      -9.84879827
C        8.47041405       2.08900181     -10.91978292
C        7.67094981       0.98101933     -11.07218166
Br       7.93050867      -0.37236295     -12.32874693
O        6.65647703       1.00381460     -10.17209559
C        2.77996866       3.47634587      -4.64983216
C        3.42725328       4.70881374      -4.79585364
C        2.69277278       5.86669852      -5.05639799
C        1.30871649       5.79793267      -5.19810364
C        0.65712612       4.57261756      -5.07742635
C        1.38805346       3.41535431      -4.80367370
H        0.57423032       2.84996586       0.02813466
H        2.32910181       3.61367968      -1.90047444
H        5.19222004       1.15889607      -5.08956746
H        5.30114340       2.85734918      -5.44049247
H        3.51265021       2.62338600      -7.20845117
H        3.27255259       0.93990826      -6.77956485
H        7.39984127       0.26500483      -7.04617047
H        7.98093467      -2.12603634      -7.19331527
H        6.34757107      -3.75392377      -8.10742593
H        4.11197521      -2.98292878      -8.85672882
H        3.50663919      -0.59319276      -8.70251587
H        8.26226038       3.76881841      -9.44045909
H        9.34504120       2.33460516     -11.50529777
H        4.50508904       4.79226809      -4.68237681
H        3.20417834       6.82143736      -5.15455380
H        0.73909594       6.69854012      -5.41315455
H       -0.42014841       4.51428905      -5.20957620
H        0.85773032       2.46692491      -4.75369623
C       -0.86703009      -0.86703009      -0.86703009
C       -1.23537962      -0.58406721      -2.15964379
C       -2.02544323      -1.67892589      -2.59137317
C       -2.13379888      -2.55413657      -1.52064225
O       -1.39951480      -2.05120749      -0.47326860
C       -2.80127270      -3.83798509      -1.30903993
O       -2.44990871      -4.59419033      -0.39953924
N       -3.81118988      -4.24232814      -2.21061237
C       -4.28216913      -5.63889781      -2.11826242
C       -5.55332495      -5.78564848      -1.25211350
N       -5.98222383      -7.18102114      -1.09144837
C       -5.38791436      -7.88796561      -0.01277119
C       -4.49973408      -8.94290121      -0.25172084
C       -3.93252078      -9.63463414       0.81846074
C       -4.26069455      -9.28535518       2.12763598
C       -5.14257819      -8.23286303       2.37013123
C       -5.69410825      -7.52360674       1.30239894
C       -6.60026108      -7.81662929      -2.18632588
O       -6.68547986      -7.24130193      -3.27520170
C       -7.17222572      -9.14608008      -2.00348859
C       -7.56295597     -10.08782595      -2.94034444
C       -8.04701743     -11.20982322      -2.22235813
C       -7.95509886     -10.87753043      -0.89152152
Br      -8.43774955     -11.98127062       0.53212752
O       -7.45713411      -9.62361974      -0.75163336
C       -4.69297868      -3.33935879      -2.87380922
C       -5.13743243      -3.62432593      -4.17016229
C       -6.03212576      -2.76883383      -4.81490969
C       -6.50907626      -1.63568999      -4.15998655
C       -6.09081804      -1.35517268      -2.86117931
C       -5.18581441      -2.20208534      -2.21918172
H       -0.96205209       0.29380504      -2.72781447
H       -2.47061159      -1.80353569      -3.56910865
H       -3.48267578      -6.26066025      -1.69734754
H       -4.44138022      -6.02945790      -3.12814694
H       -6.38378884      -5.24162889      -1.71906964
H       -5.39908884      -5.32281915      -0.27011772
H       -4.22539238      -9.22077002      -1.26485416
H       -3.23375237     -10.44528778       0.63082654
H       -3.82781086      -9.83354269       2.96028032
H       -5.40704580      -7.96956383       3.39083438
H       -6.39865734      -6.72139045       1.50408550
H       -7.48674758      -9.97171029      -4.01308000
H       -8.41647389     -12.14139623      -2.62707400
H       -4.77528800      -4.49728184      -4.70716411
H       -6.36061002      -2.99229662      -5.82726287
H       -7.21534535      -0.97671549      -4.65872979
H       -6.47921010      -0.48329379      -2.34121295
H       -4.90715273      -1.97971169      -1.19148705
C       -0.86703009       0.86703009       0.86703009
C       -1.27883318       0.55948051       2.14077694
C       -2.05063127       1.66383177       2.58127925
C       -2.10529045       2.57045628       1.53283099
O       -1.35599564       2.07584768       0.49214756
C       -2.73151916       3.87769177       1.33908679
O       -2.33453325       4.64820321       0.46090182
N       -3.75484666       4.28543346       2.22385027
C       -4.18499718       5.69658806       2.15774411
C       -5.42704895       5.90218645       1.26185152
N       -5.81327798       7.31282497       1.12859040
C       -5.17014854       8.03192719       0.08657542
C       -4.26068011       9.05480617       0.37886984
C       -3.64527606       9.75923363      -0.65581552
C       -3.94616272       9.45489749      -1.98264646
C       -4.84917408       8.43438069      -2.27824478
C       -5.44931396       7.71207216      -1.24607007
C       -6.44413874       7.93548068       2.22359683
O       -6.57527611       7.33341928       3.29328810
C       -6.97449552       9.28483938       2.06245949
C       -7.36550674      10.21134869       3.01427093
C       -7.79872952      11.36548048       2.31498878
C       -7.67877691      11.06698797       0.97838592
Br      -8.09140265      12.22198542      -0.42649542
O       -7.21131254       9.80393342       0.81714126
C       -4.67896802       3.38974748       2.83743119
C       -5.15151112       3.65171903       4.12869051
C       -6.08672433       2.80433490       4.72481005
C       -6.57579408       1.70312417       4.02583455
C       -6.12923746       1.44639634       2.73153623
C       -5.18403127       2.28484532       2.13820488
H       -1.04538161      -0.34076800       2.69144791
H       -2.51935270       1.77423309       3.54967014
H       -3.35749740       6.30700120       1.77618497
H       -4.36165806       6.06388978       3.17343722
H       -6.28467047       5.36907179       1.69074512
H       -5.25809821       5.46205223       0.27187526
H       -4.00726510       9.29732091       1.40643055
H       -2.93027333      10.54469133      -0.42675105
H       -3.47550717      10.01318946      -2.78762340
H       -5.09211598       8.20635453      -3.31269526
H       -6.16947207       6.93558799      -1.48909776
H       -7.32242825      10.06408650       4.08502312
H       -8.15391634      12.29567095       2.73535682
H       -4.78093158       4.49934096       4.69946140
H       -6.43713323       3.00932037       5.73371591
H       -7.31332081       1.05081500       4.48665482
H       -6.52649069       0.60012046       2.17710569
H       -4.88294974       2.08275414       1.11264758
C        0.86703009      -0.86703009       0.86703009
C        0.78024150      -2.23435132       0.96449780
C        1.79741139      -2.62880290       1.86952800
C        2.42436128      -1.47294860       2.31126782
O        1.85464425      -0.39856250       1.67078415
C        3.52172326      -1.19078335       3.23579111
O        4.13716016      -0.12258951       3.18388861
N        3.92436472      -2.19203557       4.14773011
C        5.18486088      -1.97009230       4.88437618
C        4.96011416      -1.34948462       6.28148814
N        6.21314563      -1.05354428       6.98800343
C        6.78730764       0.21692878       6.71827229
C        7.99599498       0.32216430       6.02052544
C        8.55272795       1.57683327       5.77279949
C        7.91310813       2.72715241       6.23245803
C        6.70711468       2.62693822       6.92513353
C        6.13543349       1.37483919       7.15472175
C        6.93892107      -2.13073737       7.53355781
O        6.57516036      -3.29330982       7.33351330
C        8.10112124      -1.85101732       8.36965584
C        9.12955757      -2.68319848       8.77837031
C       10.00295160      -1.90130613       9.57494105
C        9.44246833      -0.64738092       9.63430156
Br      10.16415166       0.81550354      10.53824454
O        8.28028557      -0.61651919       8.93558245
C        3.03554243      -3.14586501       4.72473924
C        3.48755860      -4.44097677       5.00338529
C        2.63916905      -5.37183822       5.60486202
C        1.34097171      -5.00829234       5.95548875
C        0.88863401      -3.71507900       5.70345703
C        1.73087466      -2.78628430       5.08992252
H        0.08133740      -2.87237721       0.44234690
H        2.03334899      -3.64088204       2.16902490
H        5.83426385      -1.31135191       4.29506781
H        5.73003209      -2.91662435       4.95232862
H        4.38986059      -2.04635809       6.90826870
H        4.34944503      -0.44240891       6.20017176
H        8.50155420      -0.56295411       5.64650826
H        9.48487943       1.65690240       5.22023658
H        8.35460756       3.70332022       6.04978589
H        6.21580015       3.52358537       7.29356047
H        5.20786330       1.30862554       7.71672454
H        9.23326775      -3.72640175       8.51186837
H       10.92367922      -2.21553496      10.04572995
H        4.49300301      -4.75349908       4.73323185
H        2.99601329      -6.37953631       5.80461990
H        0.68514929      -5.73061274       6.43502859
H       -0.11669995      -3.42388236       5.99653443
H        1.36424429      -1.77302903       4.94107814
