105
Properties=species:S:1:pos:R:3 pbc="F F F"
C        0.00000000       0.00000000       0.00000000
C        0.88181971       0.88181971      -0.88181971
C        1.08025768       2.22022600      -0.54200523
C        1.89108420       3.02510796      -1.34363929
C        2.49623723       2.48673202      -2.47711405
O        3.29694454       3.31741617      -3.21526856
C        3.99879617       2.65576036      -4.27914996
H        4.25214110       3.42536882      -5.01680711
O        3.21837420       1.68608502      -4.96704937
C        2.97686807       0.62008476      -4.05723736
H        2.30198541      -0.07385986      -4.57044134
O        4.15336360      -0.12672781      -3.71185871
C        5.26691816       0.64798907      -3.52205774
C        6.41310056       0.01272267      -3.04997074
C        7.57236940       0.75523585      -2.81886865
C        7.57392439       2.12888302      -3.06223060
Br       9.14192347       3.13487112      -2.74046851
C        6.42954772       2.76796819      -3.53917003
C        5.26943008       2.02137032      -3.78107217
C        2.28781329       1.14996395      -2.82860614
C        1.48238411       0.34009986      -2.01832538
H        0.61469837       2.64327675       0.34422606
H        2.05722635       4.06618144      -1.07971052
H        6.40246167      -1.05625615      -2.85371846
H        8.46268850       0.25590460      -2.44557981
H        6.43451335       3.84020224      -3.72001328
H        1.33020678      -0.70579868      -2.27418758
C       -0.88181971      -0.88181971      -0.88181971
C       -1.31229685      -2.12156286      -0.40862920
C       -2.12342190      -2.92522917      -1.21118038
C       -2.49727086      -2.48415023      -2.47866222
O       -3.31016460      -3.30526137      -3.21420329
C       -3.76990004      -2.72098785      -4.44281860
H       -4.03679646      -3.55089391      -5.10662666
O       -2.77759273      -1.96652253      -5.12739334
C       -2.50122352      -0.81938748      -4.33357920
H       -1.67422621      -0.29710311      -4.82723756
O       -3.59173035       0.11134112      -4.25810527
C       -4.82028620      -0.48170491      -4.13497386
C       -5.91305314       0.35399649      -3.91673731
C       -7.18702798      -0.19573826      -3.76370766
C       -7.35602269      -1.57891079      -3.83010453
Br      -9.08056694      -2.32279685      -3.61389932
C       -6.26496869      -2.41883308      -4.05288417
C       -4.98821399      -1.86675303      -4.21690555
C       -2.05576028      -1.24895425      -2.96166885
C       -1.25030158      -0.43847253      -2.15203526
H       -1.02775157      -2.46754640       0.58154890
H       -2.46978741      -3.88813284      -0.84519806
H       -5.77314929       1.43019273      -3.85696741
H       -8.03583639       0.46012586      -3.58846237
H       -6.40171066      -3.49671586      -4.09630235
H       -0.91796139       0.53208586      -2.51272015
C       -0.88181971       0.88181971       0.88181971
C       -1.28016569       0.42426154       2.13806168
C       -2.08062496       1.23200179       2.94720470
C       -2.47622178       2.48890294       2.49495859
O       -3.24457453       3.24611393       3.33894080
C       -3.48835045       4.57979708       2.86555897
H       -4.39802471       4.93088321       3.36540911
O       -3.74635138       4.65607642       1.46908080
C       -2.53838208       4.31550095       0.80030716
H       -2.77644084       4.29099213      -0.26886608
O       -1.48922085       5.28101051       0.96826314
C       -1.40617219       5.79599613       2.23479665
C       -0.32871642       6.63360841       2.51346913
C       -0.18150716       7.17200805       3.79295869
C       -1.11504312       6.86644311       4.78355179
Br      -0.90971081       7.58915439       6.51839791
C       -2.19776390       6.03164578       4.50727626
C       -2.35142205       5.49974793       3.22070259
C       -2.09102856       2.94451025       1.23084456
C       -1.27942415       2.13786665       0.42351856
H       -0.96957917      -0.55324708       2.49741697
H       -2.38701803       0.88546672       3.93063356
H        0.40009049       6.86034947       1.73966499
H        0.66373192       7.82094456       4.00696026
H       -2.91817355       5.79110010       5.28545522
H       -0.95968547       2.49242070      -0.55351049
C        0.88181971      -0.88181971       0.88181971
C        1.40012174      -0.37053377       2.07183340
C        2.20071844      -1.17765178       2.88146122
C        2.47672286      -2.48757523       2.49578521
O        3.25130739      -3.23973354       3.33858833
C        3.36952080      -4.61648942       2.94769627
H        4.28722646      -4.99799868       3.40909188
O        3.51992725      -4.80539400       1.54618734
C        2.29244496      -4.42414020       0.93760503
H        2.45352697      -4.48920354      -0.14416362
O        1.19540712      -5.29754836       1.24553902
C        1.16974843      -5.71845233       2.54876421
C        0.06121382      -6.45506514       2.95951501
C       -0.02893254      -6.89374462       4.28166182
C        0.99241724      -6.59041900       5.18220177
Br       0.86497701      -7.17754134       6.97474476
C        2.10617453      -5.85682688       4.77368453
C        2.20178575      -5.42556285       3.44452397
C        1.97107033      -2.99840445       1.29690859
C        1.15944088      -2.19144752       0.48992096
H        1.18311154       0.64893875       2.37957627
H        2.60025674      -0.78860493       3.81425664
H       -0.73538403      -6.68014664       2.25516137
H       -0.89833583      -7.46380082       4.59870792
H        2.89566563      -5.61710481       5.48195843
H        0.74654471      -2.58707484      -0.43502388
