134
Properties=species:S:1:pos:R:3 pbc="F F F"
C        1.79172373       1.79172373      -1.79172373
C        1.99016171       3.13013002      -1.45190926
C        2.80098822       3.93501199      -2.25354331
C        3.40614125       3.39663605      -3.38701807
O        4.20684856       4.22732019      -4.12517258
C        4.90870020       3.56566438      -5.18905399
H        5.16204512       4.33527285      -5.92671113
O        4.12827823       2.59598905      -5.87695340
C        3.88677210       1.52998879      -4.96714138
H        3.21188944       0.83604416      -5.48034536
O        5.06326763       0.78317621      -4.62176273
C        6.17682219       1.55789310      -4.43196176
C        7.32300458       0.92262669      -3.95987476
C        8.48227342       1.66513988      -3.72877267
C        8.48382841       3.03878705      -3.97213463
C        7.33945174       3.67787222      -4.44907406
C        6.17933411       2.93127434      -4.69097620
C        3.19771731       2.05986798      -3.73851016
C        2.39228814       1.25000388      -2.92822941
H        1.52460239       3.55318077      -0.56567797
H        2.96713037       4.97608547      -1.98961454
H        7.31236569      -0.14635213      -3.76362248
H        9.37259253       1.16580862      -3.35548383
H        7.34441738       4.75010626      -4.62991730
H        2.24011080       0.20410534      -3.18409161
C        9.67814938       3.80503283      -3.72705335
C       10.67839319       4.44676367      -3.52179779
Br      12.29570284       5.48438816      -3.18991690
C       -1.79172373      -1.79172373      -1.79172373
C       -2.39053464      -1.25158485      -2.93008149
C       -3.19126833      -2.05826880      -3.74000639
C       -3.38705125      -3.39656965      -3.40617447
O       -4.16599874      -4.14561156      -4.24773103
C       -4.20099135      -5.54315223      -3.91927499
H       -5.12137199      -5.94706171      -4.35559540
O       -4.27404268      -5.80402095      -2.52315704
C       -3.03740844      -5.39211583      -1.95437799
H       -3.14242996      -5.51509903      -0.87074997
O       -1.91730055      -6.19583012      -2.35507590
C       -1.93561675      -6.55402566      -3.67703463
C       -0.81539566      -7.21592123      -4.17418914
C       -0.76946640      -7.58783341      -5.51888617
C       -1.84643477      -7.29311817      -6.35519715
C       -2.97183522      -6.63438705      -5.86017574
C       -3.02253116      -6.27046525      -4.50858823
C       -2.80045082      -3.93728027      -2.25836435
C       -1.98883046      -3.13009725      -1.45159372
H       -2.23633257      -0.20956767      -3.19756089
H       -3.65338457      -1.64625102      -4.63319480
H        0.02414441      -7.43440512      -3.51937534
H        0.10899519      -8.09954430      -5.90333587
H       -3.80515527      -6.40076771      -6.51851797
H       -1.51346337      -3.54766567      -0.56717871
C       -1.79530642      -7.67119064      -7.74373850
C       -1.75248643      -7.98782633      -8.90664189
Br      -1.68325012      -8.49979947     -10.78695831
C       -1.79172373       1.79172373       1.79172373
C       -1.44990739       3.12917883       1.99311476
C       -2.25860646       3.93741775       2.79351931
C       -3.40091619       3.40323976       3.38563942
O       -4.16747254       4.24741908       4.14444971
C       -5.39940571       3.66561328       4.59839958
H       -5.70810941       4.23140395       5.48451574
O       -5.27692174       2.31088320       5.01341573
C       -4.99034026       1.54101177       3.85255024
H       -4.81037276       0.51770579       4.20020041
O       -6.07697277       1.47462120       2.91661260
C       -6.74809095       2.65840497       2.76018113
C       -7.72505916       2.71165907       1.76878780
C       -8.42780042       3.89788917       1.55049639
C       -8.14570654       5.02186530       2.32717824
C       -7.17123721       4.97131166       3.32384915
C       -6.47335139       3.77817229       3.55006096
C       -3.73842655       2.05982825       3.19784066
C       -2.93223701       1.25190810       2.38637632
H       -0.56276349       3.55179595       1.52890169
H       -2.00311203       4.98249881       2.94721954
H       -7.93357899       1.83500826       1.16104880
H       -9.18560653       3.93599918       0.77227926
H       -6.95053801       5.85275228       3.92115065
H       -3.19786645       0.21065048       2.21979083
C       -8.86645707       6.24702735       2.09675115
C       -9.47008563       7.27310056       1.90376846
Br     -10.44610197       8.93217416       1.59173177
C        1.79172373      -1.79172373       1.79172373
C        2.69832821      -1.20138292       2.67248985
C        3.49995885      -2.00627018       3.48331449
C        3.38940804      -3.39293774       3.40744960
O        4.18654106      -4.13235672       4.24044356
C        3.91213646      -5.54160590       4.20967620
H        4.82009731      -6.04768117       4.55625062
O        3.64655902      -6.04737002       2.90729163
C        2.40783248      -5.49034223       2.48572755
H        2.26185382      -5.81643714       1.44998800
O        1.27510981      -5.96189005       3.23120671
C        1.50706343      -6.08397088       4.57564273
C        0.41866308      -6.40240676       5.38443620
C        0.59114814      -6.52039675       6.76464108
C        1.85307933      -6.31787850       7.32379226
C        2.94636912      -6.00320415       6.51682476
C        2.77566669      -5.89508329       5.13083467
C        2.49249106      -3.98799633       2.51560806
C        1.68112150      -3.17981709       1.70958284
H        2.78428229      -0.12004410       2.73913475
H        4.20184443      -1.55281277       4.17817318
H       -0.56373264      -6.54993051       4.94343817
H       -0.26223080      -6.76397170       7.39214408
H        3.92610651      -5.83920477       6.95912966
H        0.96735546      -3.63435115       1.02660114
C        2.02864705      -6.43319907       8.74838944
C        2.17568501      -6.52978005       9.94148958
Br       2.41343297      -6.68594332      11.87063161
C       -0.00445707       0.01189536      -1.78238275
H       -0.66409135       0.67374010      -2.43557963
H        0.65740317      -0.63156657      -2.45157240
C       -0.90989263      -0.90692880      -0.91072765
C        0.90977584       0.90977584      -0.90977584
C       -0.00465871       1.77757030       0.00794375
H       -0.66225468       2.44313916      -0.64384735
H        0.64322798       2.43503045       0.67728295
C       -1.78241447       0.00034974      -0.00472694
H       -2.45427497      -0.65498947       0.64260836
H       -2.43311707       0.67328779      -0.65473579
C       -0.91132561       0.90220522       0.91563759
C       -0.01476271      -0.02253852       1.78660255
H       -0.67934791      -0.69751639       2.42135241
H        0.63392994       0.61504881       2.47327442
C        0.01484550      -1.77751727      -0.01636693
H        0.67870853      -2.42144646      -0.68295456
H       -0.62264859      -2.45592969       0.64226336
C        1.78714474       0.01002794       0.00389507
H        2.44202412       0.67113390       0.66197326
H        2.45385902      -0.65136977      -0.64189061
C        0.91606151      -0.90478549       0.90901405
