177
Properties=species:S:1:pos:R:3 pbc="F F F"
C        0.00000000       0.00000000       0.00000000
Cl      -3.81521720       9.42058165      -3.69382198
C       -2.48576569       8.43994185      -3.21625707
C       -1.36049732       8.35293134      -4.03136982
C       -0.27845601       7.56165694      -3.63706567
C       -0.31978038       6.85764437      -2.42481774
C       -1.45460448       6.94976378      -1.61156568
C       -2.53825419       7.74091677      -2.01102101
C        0.86199041       6.05714121      -2.02599355
N        1.93164101       5.96350071      -2.75672720
N        2.82247223       5.22942870      -2.03880487
C        3.82542339       4.39675517      -2.72038401
H        4.58259631       4.07739424      -1.98756922
O        3.30692061       3.20341110      -3.30936131
C        2.49488480       2.48736712      -2.47421120
C        2.24842721       1.16395905      -2.84258775
C        1.43948850       0.35671927      -2.04453560
C        0.88187982       0.88187982      -0.88187982
C        1.11909811       2.20828959      -0.51420455
C        1.91392695       3.03558389      -1.32448921
C        2.19112309       4.47413141      -0.94921711
H        2.82879975       4.48112295      -0.05658401
C        0.93176269       5.31352129      -0.72029077
C        4.62288597       5.25226619      -3.72545407
O        5.59893390       5.92286330      -3.36657838
C        4.27028846       5.24863536      -5.18116162
C        2.99230001       4.93850881      -5.66074797
C        2.73036965       4.94098894      -7.03541083
C        3.74555687       5.25782244      -7.93531137
Br       3.39115218       5.25166166      -9.79109538
C        5.01992862       5.57992779      -7.47423916
C        5.27885844       5.58052575      -6.10014730
H       -1.31261634       8.90109479      -4.96908913
H        0.60107962       7.50970874      -4.27645030
H       -1.52093787       6.42678208      -0.66287684
H       -3.41749131       7.81244406      -1.37477925
H        2.69642367       0.75973079      -3.74701127
H        1.25793182      -0.67458051      -2.33460883
H        0.68327036       2.59625997       0.40326251
H        0.02551899       4.73144612      -0.54250803
H        1.08096410       6.04462666       0.08158742
H        2.17621453       4.70131977      -4.98434202
H        1.73199620       4.69706091      -7.38860099
H        5.81615248       5.83244750      -8.16893782
H        6.27683389       5.83713962      -5.74869100
Cl     -10.75642204       1.03290290       0.42433271
C       -9.33640301       0.61859898      -0.45262920
C       -9.28390626      -0.57855532      -1.16134226
C       -8.13176317      -0.90897231      -1.87953112
C       -7.03062419      -0.04050534      -1.89155221
C       -7.09099634       1.16044256      -1.17617119
C       -8.24562571       1.48703659      -0.45509447
C       -5.84062742      -0.41103129      -2.69346646
N       -5.76295135      -1.51393291      -3.37498464
N       -4.57953112      -1.46885293      -4.04232174
C       -3.86070987      -2.70893784      -4.37291486
H       -3.06744381      -2.47905195      -5.10106401
O       -3.21837329      -3.33808415      -3.26323559
C       -2.47979191      -2.47910701      -2.49756420
C       -1.55692159      -3.06689723      -1.63115518
C       -0.75397538      -2.26690124      -0.81986675
C       -0.88187982      -0.88187982      -0.88187982
C       -1.81023184      -0.29001571      -1.74134471
C       -2.63957197      -1.08910564      -2.54532243
C       -3.65057443      -0.47580264      -3.48809454
H       -3.10683054       0.03360317      -4.29327934
C       -4.63521404       0.48102882      -2.81138953
C       -4.79464313      -3.66973976      -5.13622334
O       -4.95184579      -3.57647978      -6.36005000
C       -5.49519531      -4.78382831      -4.42106182
C       -5.78477906      -4.75492811      -3.05184962
C       -6.43150378      -5.83484290      -2.44042275
C       -6.79455042      -6.94628375      -3.19785651
Br      -7.65962087      -8.40649638      -2.36779197
C       -6.52403754      -6.98633873      -4.56371930
C       -5.88105547      -5.90480759      -5.17366842
H      -10.13431222      -1.25595287      -1.16730249
H       -8.10557198      -1.84215515      -2.43951153
H       -6.26300082       1.86206466      -1.16778489
H       -8.28997947       2.42287128       0.09737619
H       -1.45714291      -4.14900717      -1.59701566
H       -0.03310635      -2.73191574      -0.15293805
H       -1.88710954       0.79376192      -1.78292020
H       -4.31207384       0.84795773      -1.83535703
H       -4.89280756       1.31806707      -3.46926284
H       -5.52760746      -3.89722258      -2.43704628
H       -6.64737919      -5.79415697      -1.37612195
H       -6.80764762      -7.84731822      -5.16257196
H       -5.67698844      -5.94326790      -6.24240817
Cl      -9.43753772      -3.80219540       3.66384411
C       -8.08168312      -2.76089865       3.84964876
C       -8.27626767      -1.41937293       4.16690910
C       -7.17248289      -0.57733110       4.32511481
C       -5.87151568      -1.07710040       4.16826645
C       -5.68438094      -2.42638410       3.84872813
C       -6.79248233      -3.26662605       3.68782732
C       -4.72654290      -0.15987292       4.37845519
N       -4.87215335       1.09351591       4.68619966
N       -3.62092443       1.58718468       4.88259668
C       -3.32581637       3.00297151       4.61377469
H       -2.34577446       3.25275941       5.04902590
O       -3.24914299       3.34204146       3.22850857
C       -2.47505343       2.48542821       2.49598148
C       -2.06945084       2.94382028       1.24170288
C       -1.26965382       2.14059742       0.43049214
C       -0.88187982       0.88187982       0.88187982
C       -1.29274629       0.41598575       2.13286022
C       -2.11786055       1.20914037       2.94699912
C       -2.57458534       0.73232337       4.30756290
H       -1.70156141       0.69417206       4.97077324
C       -3.29650294      -0.61725257       4.28632438
C       -4.31238254       3.90108088       5.38714281
O       -4.11153295       4.20788144       6.56896117
C       -5.51670904       4.47616176       4.70721463
C       -6.11400609       3.89504996       3.58250075
C       -7.23154769       4.48945650       2.98576524
C       -7.75812732       5.66572304       3.51484032
Br      -9.26158461       6.47066398       2.70166062
C       -7.18278944       6.25088278       4.64042335
C       -6.06842590       5.65355250       5.23755308
H       -9.27949430      -1.02201581       4.30008909
H       -7.33552878       0.46731414       4.58439574
H       -4.69344048      -2.85209710       3.72737767
H       -6.64297087      -4.31561492       3.44237605
H       -2.36893239       3.93224674       0.90198660
H       -0.95241124       2.50741724      -0.54186834
H       -0.97015798      -0.56553176       2.47164159
H       -3.12317703      -1.20958794       3.38588405
H       -3.06763291      -1.20528615       5.18165658
H       -5.73602769       2.97084208       3.15500655
H       -7.68111083       4.02366540       2.11288187
H       -7.58978251       7.16573799       5.06201731
H       -5.62759792       6.11591156       6.11915503
Cl      -1.89549275     -10.63193232       0.56274685
C       -0.79959359      -9.31028171       0.65974511
C        0.07263861      -9.21089192       1.74027331
C        0.96753241      -8.14021461       1.81251958
C        0.99263351      -7.16803615       0.80201208
C        0.11233935      -7.27468533      -0.28029971
C       -0.78515677      -8.34692162      -0.34808125
C        1.98012981      -6.06708108       0.89791428
N        2.81541265      -5.95078204       1.88567423
N        3.61101455      -4.88868975       1.59100149
C        4.20050529      -4.07597418       2.66608310
H        4.98131127      -3.42857204       2.23767646
O        3.27940155      -3.20990416       3.33038731
C        2.49714942      -2.48239581       2.47691789
C        1.84385354      -1.38041087       3.03070959
C        1.03313241      -0.57591679       2.23169417
C        0.88187982      -0.88187982       0.88187982
C        1.52709927      -1.98876882       0.32572417
C        2.32724268      -2.81826099       1.12849637
C        3.04100391      -4.02078650       0.55268120
H        3.82694202      -3.66398777      -0.12442308
C        2.11881156      -5.01042526      -0.16366208
C        4.97067229      -4.98239484       3.64753909
O        6.13993089      -5.32180528       3.42663940
C        4.33943348      -5.43105986       4.92959211
C        2.95473213      -5.52497322       5.11185145
C        2.42719707      -5.93970938       6.33986298
C        3.28365877      -6.26595721       7.38907470
Br       2.56825292      -6.81704051       9.04861578
C        4.66428947      -6.18891738       7.22088873
C        5.18968050      -5.77784771       5.99200327
H        0.06917199      -9.96303498       2.52536061
H        1.65301685      -8.07827538       2.65594643
H        0.10721379      -6.54720879      -1.08570154
H       -1.46589129      -8.42809166      -1.19246836
H        1.97606265      -1.14354167       4.08356141
H        0.53332771       0.28419578       2.66882821
H        1.40479345      -2.20440696      -0.73293259
H        1.14824368      -4.60016736      -0.44893791
H        2.61437523      -5.46034105      -1.03071294
H        2.26120165      -5.29149550       4.30917917
H        1.34941578      -6.00591028       6.46233203
H        5.33934366      -6.44569456       8.03249959
H        6.27004329      -5.72414895       5.86847228
