185
Properties=species:S:1:pos:R:3 pbc="F F F"
C        0.00000000       0.00000000       0.00000000
Cl      -3.81521720       9.42058165      -3.69382198
C       -2.48576569       8.43994185      -3.21625707
C       -1.36049732       8.35293134      -4.03136982
C       -0.27845601       7.56165694      -3.63706567
C       -0.31978038       6.85764437      -2.42481774
C       -1.45460448       6.94976378      -1.61156568
C       -2.53825419       7.74091677      -2.01102101
C        0.86199041       6.05714121      -2.02599355
N        1.93164101       5.96350071      -2.75672720
N        2.82247223       5.22942870      -2.03880487
C        3.82542339       4.39675517      -2.72038401
H        4.58259631       4.07739424      -1.98756922
O        3.30692061       3.20341110      -3.30936131
C        2.49488480       2.48736712      -2.47421120
C        2.24842721       1.16395905      -2.84258775
C        1.43948850       0.35671927      -2.04453560
C        0.88187982       0.88187982      -0.88187982
C        1.11909811       2.20828959      -0.51420455
C        1.91392695       3.03558389      -1.32448921
C        2.19112309       4.47413141      -0.94921711
H        2.82879975       4.48112295      -0.05658401
C        0.93176269       5.31352129      -0.72029077
C        4.62288597       5.25226619      -3.72545407
O        5.59893390       5.92286330      -3.36657838
C        4.27028846       5.24863536      -5.18116162
C        2.99230001       4.93850881      -5.66074797
C        2.73036965       4.94098894      -7.03541083
C        3.74555687       5.25782244      -7.93531137
C        5.01992862       5.57992779      -7.47423916
C        5.27885844       5.58052575      -6.10014730
H       -1.31261634       8.90109479      -4.96908913
H        0.60107962       7.50970874      -4.27645030
H       -1.52093787       6.42678208      -0.66287684
H       -3.41749131       7.81244406      -1.37477925
H        2.69642367       0.75973079      -3.74701127
H        1.25793182      -0.67458051      -2.33460883
H        0.68327036       2.59625997       0.40326251
H        0.02551899       4.73144612      -0.54250803
H        1.08096410       6.04462666       0.08158742
H        2.17621453       4.70131977      -4.98434202
H        1.73199620       4.69706091      -7.38860099
H        5.81615248       5.83244750      -8.16893782
H        6.27683389       5.83713962      -5.74869100
C        3.47543876       5.25312685      -9.34974205
C        3.24921484       5.24919429     -10.53432775
Br       2.88342989       5.24283568     -12.44970263
Cl      -8.53767323       4.29715674      -5.05866993
C       -7.29491710       3.11078261      -4.98629874
C       -7.60535684       1.76856422      -5.18701122
C       -6.59231382       0.80757632      -5.13552910
C       -5.26600924       1.18858158      -4.88525408
C       -4.96229650       2.53947245      -4.68390092
C       -5.98007888       3.49941548      -4.73302019
C       -4.21542852       0.14331676      -4.87301341
N       -4.46855598      -1.11561869      -5.06769424
N       -3.26697651      -1.75125886      -5.07247042
C       -3.16042396      -3.15056643      -4.63157218
H       -2.17571829      -3.54455794      -4.92728354
O       -3.26159626      -3.33868124      -3.21941552
C       -2.47411159      -2.48764921      -2.49470232
C       -2.25027061      -2.84139527      -1.16330813
C       -1.45123672      -2.03693578      -0.35257088
C       -0.88187982      -0.88187982      -0.88187982
C       -1.11041773      -0.51981981      -2.21135471
C       -1.93306242      -1.31211063      -3.02882699
C       -2.19471513      -0.94689346      -4.47286303
H       -1.26074769      -1.07094341      -5.03481560
C       -2.75975532       0.46222197      -4.66804139
C       -4.15851056      -4.02585453      -5.41624114
O       -3.87556836      -4.48140874      -6.53139847
C       -5.48170173      -4.39750879      -4.82087493
C       -6.12020408      -3.63733369      -3.83401902
C       -7.35140218      -4.04610458      -3.30926266
C       -7.95033461      -5.21527677      -3.77307931
C       -7.33390730      -5.97734623      -4.76284205
C       -6.10548488      -5.56540975      -5.28863685
H       -8.62823154       1.46155997      -5.39089601
H       -6.84421733      -0.23781814      -5.30520319
H       -3.94721202       2.87442236      -4.49593138
H       -5.73968226       4.54891767      -4.57896742
H       -2.69091962      -3.75057179      -0.76167432
H       -1.27621438      -2.32278200       0.68103624
H       -0.64779015       0.38031067      -2.60878833
H       -2.61260860       1.13105801      -3.81792255
H       -2.37787572       0.92054841      -5.58667602
H       -5.68615534      -2.71379146      -3.46192952
H       -7.83145010      -3.44291665      -2.54329135
H       -7.79618865      -6.88806943      -5.13327972
H       -5.63281409      -6.16530188      -6.06454855
C       -9.21401414      -5.63750693      -3.22678659
C      -10.27234575      -5.99112468      -2.76926644
Br     -11.98357845      -6.56289469      -2.02949505
Cl      -5.02558668       8.56172060      -4.28812086
C       -4.95947346       7.31573376      -3.10477399
C       -5.16284805       7.62323594      -1.76228015
C       -5.11645139       6.60759444      -0.80377923
C       -4.86860754       5.28163334      -1.18755915
C       -4.66455260       4.98087878      -2.53870642
C       -4.70857693       6.00125083      -3.49614416
C       -4.86176604       4.22833878      -0.14497965
N       -5.05904165       4.47872776       1.11409949
N       -5.06854878       3.27553323       1.74662379
C       -4.63153699       3.16424402       3.14678156
H       -4.93079608       2.17929400       3.53746969
O       -3.21961463       3.26128913       3.33878925
C       -2.49473710       2.47412988       2.48759614
C       -1.16484009       2.24594606       2.84418786
C       -0.35408893       1.44689593       2.03975852
C       -0.88187982       0.88187982       0.88187982
C       -2.20982401       1.11477698       0.51699127
C       -3.02721803       1.93748642       1.30929560
C       -4.46962926       2.20380178       0.94104057
H       -5.03430097       1.27097090       1.06123484
C       -4.65971791       2.77296701      -0.46711018
C       -5.41589061       4.16209606       4.02261955
O       -6.53294356       3.88086016       4.47457186
C       -4.81808273       5.48278657       4.39921614
C       -3.82762984       6.12069494       3.64323202
C       -3.30076376       7.34947963       4.05652604
C       -3.76605218       7.94659644       5.22604207
C       -4.75935998       7.33076559       5.98397001
C       -5.28724919       6.10476739       5.56751490
H       -5.36489175       8.64583990      -1.45316407
H       -5.28817277       6.85724437       0.24182152
H       -4.47833193       3.96617794      -2.87578882
H       -4.55243657       5.76315857      -4.54586313
H       -0.76442040       2.68321705       3.75552828
H        0.67832372       1.26847324       2.32781062
H       -2.60612342       0.65549345      -0.38534905
H       -3.80825809       2.62534922      -1.13413417
H       -5.57814673       2.39463865      -0.92878205
H       -3.45427732       5.68806537       2.71953363
H       -2.53200660       7.82910047       3.45655103
H       -5.13095498       7.79165630       6.89492653
H       -6.06591919       5.63255773       6.16418759
C       -3.21760103       9.20777216       5.65293447
C       -2.75827319      10.26400684       6.01045685
Br      -2.01557892      11.97184897       6.58854030
Cl       6.47841858       4.54777388       7.36854173
C        5.53832369       3.20822726       6.84033680
C        6.08053647       1.92629126       6.86955863
C        5.31167376       0.83866976       6.44726260
C        3.99759937       1.03189083       5.99697320
C        3.46018603       2.32345962       5.96999855
C        4.23423300       3.41136847       6.39081906
C        3.20330022      -0.15142467       5.59040027
N        3.67411445      -1.36161645       5.61613801
N        2.64682124      -2.17943977       5.26444479
C        2.90816592      -3.45478588       4.57961077
H        1.99044363      -4.06297535       4.59414079
O        3.28469223      -3.32715846       3.20784234
C        2.47340554      -2.49140856       2.49164902
C        2.55724247      -2.59533492       1.10239662
C        1.75907851      -1.78865597       0.29300889
C        0.88187982      -0.88187982       0.88187982
C        0.80117781      -0.76874733       2.27166712
C        1.61843277      -1.56107651       3.09449076
C        1.54950083      -1.46293176       4.60203903
H        0.57962749      -1.85738298       4.92949623
C        1.76969511      -0.04940047       5.14647917
C        3.91718836      -4.29047061       5.39294726
O        3.54898234      -5.00787137       6.33152186
C        5.37016333      -4.30054720       5.02937491
C        5.99622521      -3.25565632       4.33967527
C        7.35621772      -3.33172720       4.01882450
C        8.09591232      -4.45220081       4.39057755
C        7.49101750      -5.49576272       5.08731535
C        6.13286900      -5.41638404       5.41027844
H        7.09484974       1.76234562       7.22506346
H        5.74145588      -0.16080986       6.48497292
H        2.44489991       2.51236979       5.63619092
H        3.81203282       4.41353670       6.37123588
H        3.23792472      -3.31345864       0.65178237
H        1.82528024      -1.88036152      -0.78768162
H        0.10190114      -0.06221056       2.71215613
H        1.63436130       0.74561100       4.41072283
H        1.15082618       0.13752247       6.03069963
H        5.45053504      -2.36275846       4.04858282
H        7.82445808      -2.51067353       3.48252649
H        8.06154414      -6.37116578       5.38482788
H        5.66936533      -6.23506048       5.95823869
C        9.49364500      -4.53126735       4.05339531
C       10.66424611      -4.59748557       3.77100519
Br      12.55700910      -4.70455484       3.31440425
