178
Properties=species:S:1:pos:R:3 pbc="F F F"
C        1.79126361       1.79126361      -1.79126361
C        2.10405591       1.38658063      -3.08562562
C        2.92167139       2.18948423      -3.89168925
C        3.43178333       3.40607301      -3.40877834
C        3.09668826       3.79719353      -2.10030596
C        2.28025850       2.99352443      -1.29259167
C        4.34958018       4.24340536      -4.26505425
S        5.27883211       5.52480199      -3.65427607
N        4.39051596       3.88550989      -5.63470236
C        5.72673714       3.56830379      -6.19452742
C        5.65306009       3.09919520      -7.65272079
N        4.94732618       4.10809076      -8.46775361
C        3.56017074       4.28273006      -7.99166744
C        3.55366109       4.73006392      -6.51728952
C        5.63930764       5.11880294      -9.17619397
S        7.32232572       5.28914086      -9.17696318
C        4.82961337       6.04324816     -10.03398918
C        4.98933032       7.43564047      -9.95435143
C        4.29231509       8.27328206     -10.82918002
C        3.42953322       7.72094466     -11.77398211
Br       2.49857622       8.85254307     -12.97020050
C        3.25624226       6.33919792     -11.85593552
C        3.96580095       5.49846101     -10.99350599
H        1.72719740       0.44482066      -3.47770778
H        3.16519599       1.84148936      -4.89101527
H        3.45933319       4.72832662      -1.67269771
H        2.04415887       3.31585724      -0.28359036
H        6.17787985       2.79289210      -5.56687207
H        6.35654629       4.46227533      -6.12764872
H        6.64993860       2.88587176      -8.04259016
H        5.08048504       2.16733594      -7.72271942
H        3.00534282       5.00871520      -8.58469593
H        3.05975929       3.31415339      -8.09482178
H        3.92891802       5.76018042      -6.45143136
H        2.53213380       4.72662575      -6.12720855
H        5.67073659       7.87651173      -9.22954644
H        4.44030963       9.34790530     -10.77440802
H        2.58800899       5.90695223     -12.59820953
H        3.85381118       4.42038775     -11.08260495
C       -1.79126361      -1.79126361      -1.79126361
C       -2.04917833      -3.10745149      -1.41963234
C       -2.84910050      -3.92055209      -2.23319228
C       -3.39938937      -3.42166204      -3.42558327
C       -3.13037875      -2.08690660      -3.77690239
C       -2.32861352      -1.27335995      -2.96440113
C       -4.22128354      -4.31608031      -4.32067595
S       -4.62400015      -3.91471539      -5.91919464
N       -4.64126052      -5.53497640      -3.73449128
C       -4.26192434      -6.77711176      -4.45053225
C       -4.67623221      -8.04122410      -3.68751978
N       -6.12383132      -7.99983480      -3.39950443
C       -6.45009454      -6.84228895      -2.54218475
C       -6.03533486      -5.53027995      -3.23539973
C       -7.07685351      -8.60445422      -4.25299682
S       -6.68202643      -9.43162258      -5.67478076
C       -8.51267969      -8.56916259      -3.82500843
C       -9.52348604      -8.15103015      -4.70480603
C      -10.86397979      -8.21550209      -4.31529530
C      -11.19242974      -8.68652827      -3.04550198
Br     -13.00751112      -8.79059418      -2.52321449
C      -10.19554140      -9.09604227      -2.15979203
C       -8.85512977      -9.04892551      -2.55371266
H       -1.62707532      -3.51752826      -0.50512226
H       -3.01942751      -4.94899021      -1.92928290
H       -3.52996243      -1.64460709      -4.68578798
H       -2.13056337      -0.24922562      -3.26381748
H       -3.17743494      -6.76020694      -4.60000213
H       -4.73658254      -6.77193958      -5.43794823
H       -4.39717403      -8.93855813      -4.24266836
H       -4.15517065      -8.09073482      -2.72463493
H       -7.50998860      -6.79311132      -2.29565403
H       -5.89456247      -6.96736582      -1.60680617
H       -6.69853448      -5.34990141      -4.09209390
H       -6.15037267      -4.68816509      -2.54743034
H       -9.27894522      -7.79449220      -5.70335735
H      -11.63981216      -7.91102685      -5.01178394
H      -10.45190049      -9.47058804      -1.17068222
H       -8.08317672      -9.40050461      -1.87312254
C       -1.79126361       1.79126361       1.79126361
C       -1.90798107       1.51746232       3.15081877
C       -2.72504853       2.31914297       3.95865337
C       -3.43113441       3.40358839       3.41191188
C       -3.29229402       3.66471772       2.03717599
C       -2.47648258       2.86194853       1.22794350
C       -4.34575193       4.23443674       4.27785113
S       -5.48724156       5.32108890       3.64957971
N       -4.19185624       4.04586569       5.67300628
C       -5.40927997       3.65557504       6.42471334
C       -5.11892147       3.38079794       7.90525667
N       -4.45793811       4.55373577       8.51149667
C       -3.16351765       4.81932354       7.85172704
C       -3.37387727       5.07941815       6.34771912
C       -5.18742162       5.56210925       9.18477369
S       -6.86829466       5.54572289       9.37441222
C       -4.40880083       6.66842334       9.82962654
C       -4.74676949       8.01440349       9.61814923
C       -4.06671158       9.02485289      10.30321272
C       -3.04407518       8.69117371      11.18921110
Br      -2.13430364      10.05682875      12.13018740
C       -2.69377753       7.35746672      11.40013145
C       -3.38446615       6.34411853      10.72918326
H       -1.37717068       0.67827127       3.59428389
H       -2.81277894       2.07246150       5.01246018
H       -3.81166933       4.49060445       1.55808373
H       -2.39397125       3.08131260       0.16832261
H       -5.82741552       2.76393568       5.94629281
H       -6.14803355       4.46000979       6.33842700
H       -6.03309413       3.10920420       8.43610219
H       -4.43160321       2.53310577       8.00583142
H       -2.64081828       5.66930904       8.28862663
H       -2.53921155       3.93159576       7.99792716
H       -3.87824511       6.04616057       6.21612413
H       -2.40868558       5.13989694       5.83738558
H       -5.55265502       8.28515605       8.93898369
H       -4.35120523      10.06177064      10.14964709
H       -1.90003331       7.09593184      12.09720560
H       -3.13129558       5.30408461      10.92142368
C        1.79126361      -1.79126361       1.79126361
C        2.07560131      -3.09728017       1.40338068
C        2.87551958      -3.91059229       2.21673300
C        3.39933402      -3.42206906       3.42523161
C        3.10392564      -2.09734164       3.79292046
C        2.30214133      -1.28362881       2.98060446
C        4.22123544      -4.31762221       4.31918214
S        4.59275351      -3.93528292       5.92987375
N        4.66938987      -5.52048005       3.72085828
C        4.29860511      -6.77946751       4.41149573
C        4.74454497      -8.02483408       3.63559703
N        6.19560374      -7.95647905       3.37108776
C        6.51685057      -6.78065857       2.53705909
C        6.07078681      -5.48631500       3.24391272
C        7.14468284      -8.55961632       4.23000540
S        6.74093638      -9.41509098       5.63240241
C        8.58623742      -8.49533593       3.82527736
C        9.57657436      -8.07548949       4.72725837
C       10.92379420      -8.11303203       4.35795095
C       11.27926517      -8.55885719       3.08633762
Br      13.10363854      -8.62653625       2.59114501
C       10.30279880      -8.96977844       2.17879846
C        8.95586597      -8.94965501       2.55224697
H        1.67423524      -3.49940023       0.47609037
H        3.06671017      -4.93135349       1.89963696
H        3.48235768      -1.66326724       4.71473258
H        2.08337178      -0.26752937       3.29270531
H        3.21179722      -6.78173217       4.54411462
H        4.75775903      -6.78248646       5.40622485
H        4.47107859      -8.93501645       4.17230549
H        4.23931690      -8.06724847       2.66397504
H        7.57953321      -6.71118055       2.30804019
H        5.97792387      -6.89958815       1.59122244
H        6.71770375      -5.30918923       4.11363681
H        6.18320136      -4.63178956       2.57097719
H        9.31099958      -7.73855282       5.72724236
H       11.68384586      -7.80757120       5.07120590
H       10.58032615      -9.32468399       1.18816061
H        8.20018793      -9.30239840       1.85421754
C       -0.00445707       0.01189536      -1.78238275
H       -0.66409135       0.67374010      -2.43557963
H        0.65740317      -0.63156657      -2.45157240
C       -0.90989263      -0.90692880      -0.91072765
C        0.90977584       0.90977584      -0.90977584
C       -0.00465871       1.77757030       0.00794375
H       -0.66225468       2.44313916      -0.64384735
H        0.64322798       2.43503045       0.67728295
C       -1.78241447       0.00034974      -0.00472694
H       -2.45427497      -0.65498947       0.64260836
H       -2.43311707       0.67328779      -0.65473579
C       -0.91132561       0.90220522       0.91563759
C       -0.01476271      -0.02253852       1.78660255
H       -0.67934791      -0.69751639       2.42135241
H        0.63392994       0.61504881       2.47327442
C        0.01484550      -1.77751727      -0.01636693
H        0.67870853      -2.42144646      -0.68295456
H       -0.62264859      -2.45592969       0.64226336
C        1.78714474       0.01002794       0.00389507
H        2.44202412       0.67113390       0.66197326
H        2.45385902      -0.65136977      -0.64189061
C        0.91606151      -0.90478549       0.90901405
