186
Properties=species:S:1:pos:R:3 pbc="F F F"
C        1.79126361       1.79126361      -1.79126361
C        2.10405591       1.38658063      -3.08562562
C        2.92167139       2.18948423      -3.89168925
C        3.43178333       3.40607301      -3.40877834
C        3.09668826       3.79719353      -2.10030596
C        2.28025850       2.99352443      -1.29259167
C        4.34958018       4.24340536      -4.26505425
S        5.27883211       5.52480199      -3.65427607
N        4.39051596       3.88550989      -5.63470236
C        5.72673714       3.56830379      -6.19452742
C        5.65306009       3.09919520      -7.65272079
N        4.94732618       4.10809076      -8.46775361
C        3.56017074       4.28273006      -7.99166744
C        3.55366109       4.73006392      -6.51728952
C        5.63930764       5.11880294      -9.17619397
S        7.32232572       5.28914086      -9.17696318
C        4.82961337       6.04324816     -10.03398918
C        4.98933032       7.43564047      -9.95435143
C        4.29231509       8.27328206     -10.82918002
C        3.42953322       7.72094466     -11.77398211
C        3.25624226       6.33919792     -11.85593552
C        3.96580095       5.49846101     -10.99350599
H        1.72719740       0.44482066      -3.47770778
H        3.16519599       1.84148936      -4.89101527
H        3.45933319       4.72832662      -1.67269771
H        2.04415887       3.31585724      -0.28359036
H        6.17787985       2.79289210      -5.56687207
H        6.35654629       4.46227533      -6.12764872
H        6.64993860       2.88587176      -8.04259016
H        5.08048504       2.16733594      -7.72271942
H        3.00534282       5.00871520      -8.58469593
H        3.05975929       3.31415339      -8.09482178
H        3.92891802       5.76018042      -6.45143136
H        2.53213380       4.72662575      -6.12720855
H        5.67073659       7.87651173      -9.22954644
H        4.44030963       9.34790530     -10.77440802
H        2.58800899       5.90695223     -12.59820953
H        3.85381118       4.42038775     -11.08260495
C        2.72083100       8.58238756     -12.68461776
C        2.12729290       9.30384600     -13.44727511
Br       1.16759197      10.47038327     -14.68042755
C       -1.79126361      -1.79126361      -1.79126361
C       -1.87789983      -3.15755314      -1.54080918
C       -2.67801217      -3.96918354      -2.35564916
C       -3.40005092      -3.41887063      -3.42771313
C       -3.30205045      -2.03499179      -3.65714549
C       -2.50027271      -1.22261753      -2.84348436
C       -4.22279113      -4.30537872      -4.32986994
S       -4.83324971      -3.79599077      -5.82866970
N       -4.45604159      -5.61386234      -3.84082428
C       -4.03708613      -6.73191035      -4.72057187
C       -4.24119294      -8.10175630      -4.06202684
N       -5.64624384      -8.24546722      -3.63145949
C       -5.98916323      -7.21914158      -2.62626343
C       -5.78172998      -5.80866615      -3.21061840
C       -6.62247095      -8.86350503      -4.44832857
S       -6.30498556      -9.50052186      -5.98292235
C       -8.00013997      -9.02562303      -3.88108770
C       -9.13610201      -8.63549664      -4.60772357
C      -10.41388943      -8.88225161      -4.09863614
C      -10.55556701      -9.50759165      -2.86130133
C       -9.43357546      -9.89127335      -2.12652689
C       -8.15465408      -9.66126747      -2.64184641
H       -1.32139649      -3.60677022      -0.72155913
H       -2.71337586      -5.03471384      -2.14961093
H       -3.83880798      -1.55200812      -4.46954141
H       -2.43657579      -0.15878461      -3.04824607
H       -2.98197261      -6.58331037      -4.97236104
H       -4.61399068      -6.68185762      -5.65062204
H       -3.93766315      -8.90521240      -4.73552498
H       -3.61670990      -8.18826395      -3.16556656
H       -7.01588844      -7.30916699      -2.27369852
H       -5.32618434      -7.37399948      -1.76855065
H       -6.54811005      -5.61841372      -3.97400603
H       -5.90323751      -5.05505011      -2.42768048
H       -9.03693780      -8.15894721      -5.58090976
H      -11.28647311      -8.59702856      -4.67912128
H       -9.54369735     -10.38599637      -1.16347703
H       -7.28303523      -9.99196169      -2.08180695
C      -11.87186059      -9.77419006      -2.34178568
C      -12.97425646      -9.99746622      -1.90669132
Br     -14.75673735     -10.35848490      -1.20318055
C       -1.79126361       1.79126361       1.79126361
C       -1.93192614       1.49952731       3.14480871
C       -2.74908085       2.30134510       3.95241892
C       -3.43125098       3.40387295       3.41151075
C       -3.26843063       3.68283463       2.04292248
C       -2.45252689       2.87996727       1.23388044
C       -4.34636685       4.23544489       4.27622805
S       -5.46261647       5.34776625       3.64752745
N       -4.21576203       4.02442353       5.67054265
C       -5.44964278       3.64122767       6.39869790
C       -5.18511020       3.34077321       7.87909267
N       -4.51618133       4.49494797       8.51204124
C       -3.20848069       4.75100197       7.87508558
C       -3.39289913       5.03594039       6.37217502
C       -5.24079472       5.50407683       9.18943301
S       -6.92433654       5.50967203       9.35442120
C       -4.45578745       6.58935169       9.86171156
C       -4.77105933       7.94308253       9.66518036
C       -4.08657526       8.93338015      10.37482176
C       -3.08202857       8.57188315      11.27054828
C       -2.75424421       7.23024956      11.46688193
C       -3.44960639       6.23700551      10.77115605
H       -1.41991918       0.64627727       3.58352939
H       -2.85587147       2.04072906       5.00110010
H       -3.76867372       4.52313147       1.56855232
H       -2.35126476       3.11343281       0.17890890
H       -5.87357781       2.76286574       5.90120047
H       -6.17530693       4.45760962       6.31355380
H       -6.11083463       3.07498979       8.39257611
H       -4.51170772       2.48169260       7.97714008
H       -2.67999721       5.58678265       8.33197409
H       -2.59932855       3.85215980       8.01724612
H       -3.88120791       6.01180419       6.24751770
H       -2.41952899       5.08960598       5.87683313
H       -5.56285641       8.23547910       8.97845925
H       -4.35371617       9.97648825      10.23241852
H       -1.97471567       6.94698768      12.17146740
H       -3.21439600       5.19068200      10.95172587
C       -2.38506759       9.59070907      12.01205967
C       -1.80136277      10.44397578      12.63307546
Br      -0.85756145      11.82363588      13.63720546
C        1.79126361      -1.79126361       1.79126361
C        1.98721760      -3.12880155       1.46024301
C        2.78717498      -3.94139048       2.27427941
C        3.39956700      -3.42068343       3.42638426
C        3.19244140      -2.06492175       3.73682460
C        2.39069939      -1.25177981       2.92389539
C        4.22158526      -4.31235295       4.32410158
S        4.69833125      -3.86879189       5.89078703
N        4.57484348      -5.56658675       3.76929798
C        4.17795299      -6.76685852       4.54475684
C        4.51727044      -8.07243566       3.81526998
N        5.95357752      -8.09590777       3.47368526
C        6.28909793      -6.98323131       2.56223901
C        5.94844136      -5.63233262       3.22024056
C        6.91547402      -8.70460488       4.31422566
S        6.54464739      -9.46434313       5.77943925
C        8.33454545      -8.73879150       3.83351376
C        9.39216182      -8.32734782       4.65981258
C       10.71386433      -8.45618805       4.22472479
C       10.97711566      -8.98488063       2.96246371
C        9.93348827      -9.38845446       2.12943297
C        8.61140511      -9.27678921       2.56957363
H        1.51649057      -3.55557148       0.57766379
H        2.90862176      -4.98582862       2.00325024
H        3.64163503      -1.60533066       4.61339182
H        2.24124264      -0.21076086       3.19160297
H        3.10116716      -6.70382738       4.73264948
H        4.68924370      -6.74377662       5.51345002
H        4.22696027      -8.93796726       4.41347299
H        3.95895588      -8.13716453       2.87441999
H        7.34006822      -6.98285996       2.27582577
H        5.69465736      -7.12113277       1.65294434
H        6.64944919      -5.44609785       4.04498276
H        6.06796611      -4.82059213       2.49740986
H        9.19837156      -7.92595923       5.65246398
H       11.52582614      -8.15605641       4.88074040
H       10.13878343      -9.80792849       1.14645883
H        7.80220928      -9.62353072       1.93106387
C       12.33918303      -9.13029289       2.51836040
C       13.47991445      -9.25207567       2.14642388
Br      15.32438069      -9.44898811       1.54503399
C       -0.00445707       0.01189536      -1.78238275
H       -0.66409135       0.67374010      -2.43557963
H        0.65740317      -0.63156657      -2.45157240
C       -0.90989263      -0.90692880      -0.91072765
C        0.90977584       0.90977584      -0.90977584
C       -0.00465871       1.77757030       0.00794375
H       -0.66225468       2.44313916      -0.64384735
H        0.64322798       2.43503045       0.67728295
C       -1.78241447       0.00034974      -0.00472694
H       -2.45427497      -0.65498947       0.64260836
H       -2.43311707       0.67328779      -0.65473579
C       -0.91132561       0.90220522       0.91563759
C       -0.01476271      -0.02253852       1.78660255
H       -0.67934791      -0.69751639       2.42135241
H        0.63392994       0.61504881       2.47327442
C        0.01484550      -1.77751727      -0.01636693
H        0.67870853      -2.42144646      -0.68295456
H       -0.62264859      -2.45592969       0.64226336
C        1.78714474       0.01002794       0.00389507
H        2.44202412       0.67113390       0.66197326
H        2.45385902      -0.65136977      -0.64189061
C        0.91606151      -0.90478549       0.90901405
