113
Properties=species:S:1:pos:R:3 pbc="F F F"
C        0.00000000       0.00000000       0.00000000
C        0.88143654       0.88143654      -0.88143654
C        0.30149630       1.88347105      -1.65543545
C        1.11142017       2.69676902      -2.45117675
C        2.50034160       2.50484660      -2.48215059
C        3.07314782       1.48926865      -1.70711510
C        2.26122025       0.68142927      -0.90311298
C        3.31345301       3.41444357      -3.33927193
O        2.83578414       4.49522679      -3.68710558
C        4.68629198       3.00060292      -3.79751570
C        4.68651789       1.80609680      -4.71446636
O        5.10257684       0.71746952      -4.31619986
C        4.17030400       1.93477906      -6.11467539
C        4.19679669       0.79744834      -6.93639775
C        3.71284008       0.85326624      -8.24739825
C        3.19605291       2.04775385      -8.74133522
Br       2.52766533       2.12624262     -10.50699867
C        3.16820706       3.18679427      -7.94014209
C        3.65997444       3.13305988      -6.63068023
H       -0.77375743       2.04416845      -1.64514542
H        0.65185988       3.48267985      -3.04855288
H        4.14474928       1.30841989      -1.69840338
H        2.71560372      -0.09859297      -0.29711022
H        5.31980737       2.79746248      -2.92596216
H        5.17357192       3.84256464      -4.30296848
H        4.59498075      -0.14419457      -6.56081267
H        3.74162197      -0.03860253      -8.86809049
H        2.76432669       4.12273839      -8.32068103
H        3.62169815       4.04674987      -6.04432140
C       -0.88143654      -0.88143654      -0.88143654
C       -2.14913337      -1.25175008      -0.43951936
C       -2.95850033      -2.04761305      -1.25325256
C       -2.49979437      -2.48227016      -2.50527426
C       -1.22052960      -2.11188880      -2.93711318
C       -0.41454304      -1.30658864      -2.12463082
C       -3.41543260      -3.31699068      -3.33474523
O       -4.62400182      -3.29640259      -3.09771210
C       -2.86347033      -4.19577922      -4.42516105
C       -1.97927545      -5.30596466      -3.92184095
O       -0.76271195      -5.26440555      -4.10912871
C       -2.57576510      -6.46306201      -3.18093134
C       -1.71495527      -7.47864877      -2.73703875
C       -2.21262868      -8.57517550      -2.02570039
C       -3.57490634      -8.65856052      -1.75167511
Br      -4.25171452     -10.13031569      -0.77887641
C       -4.44301504      -7.66161264      -2.19051573
C       -3.94610228      -6.56816490      -2.90944735
H       -2.51927422      -0.92565957       0.52937736
H       -3.95119160      -2.32769055      -0.90421046
H       -0.82714295      -2.42325848      -3.90117112
H        0.57380556      -1.01580463      -2.47212192
H       -2.31194332      -3.58314248      -5.14814620
H       -3.68980248      -4.62715337      -5.00214919
H       -0.64657144      -7.42349026      -2.94153715
H       -1.52971249      -9.35136479      -1.69003265
H       -5.50850629      -7.72111243      -1.97812739
H       -4.66058455      -5.81733784      -3.23484703
C       -0.88143654       0.88143654       0.88143654
C       -2.12420382       1.30190036       0.41429863
C       -2.93409068       2.09764883       1.22762643
C       -2.50046351       2.48212695       2.50474833
C       -1.24584044       2.06154239       2.96214874
C       -0.43964085       1.25642926       2.14969239
C       -3.41587603       3.31940581       3.33188667
O       -4.61695075       3.34162782       3.05953793
C       -2.87143830       4.14952745       4.46344485
C       -1.94096807       5.24699733       4.01911565
O       -0.73222138       5.16388057       4.24014426
C       -2.48148776       6.44224072       3.29602995
C       -1.57888232       7.44417236       2.90758811
C       -2.02329973       8.57510404       2.21510081
C       -3.37384743       8.70684992       1.90444462
Br      -3.97863132      10.22556713       0.95670817
C       -4.28305687       7.72390415       2.28818240
C       -3.83953637       6.59585212       2.98832604
H       -2.47462722       1.01508385      -0.57415464
H       -3.90745749       2.41709227       0.85854285
H       -0.87247249       2.33309911       3.94600096
H        0.52912392       0.92646248       2.51678243
H       -2.35958382       3.50013157       5.18351661
H       -3.70176183       4.58844298       5.02890024
H       -0.51909257       7.35137807       3.14112821
H       -1.30856838       9.34000922       1.92253233
H       -5.33959646       7.82117783       2.04697182
H       -4.58476872       5.85752278       3.27047791
C        0.88143654      -0.88143654       0.88143654
C        0.63592978      -0.95412410       2.25034893
C        1.43572096      -1.77111380       3.05253119
C        2.48728616      -2.50952801       2.49052462
C        2.73166342      -2.42321231       1.11465584
C        1.92341262      -1.61149997       0.31084991
C        3.29629010      -3.37526278       3.39561563
O        2.82511953      -3.70946941       4.48352757
C        4.68188270      -3.80676202       2.99576587
C        5.66167800      -2.66954296       2.87586010
O        6.06046939      -2.30748674       1.76829008
C        6.14875270      -1.96584278       4.10516296
C        7.06734675      -0.91681703       3.94647901
C        7.54444341      -0.21247634       5.05658482
C        7.10104350      -0.55251928       6.33157919
Br       7.73093433       0.40432393       7.83429623
C        6.19398170      -1.59505340       6.50610832
C        5.72261431      -2.30529764       5.39580259
H       -0.17348500      -0.38636634       2.70267509
H        1.23373502      -1.82835315       4.12100444
H        3.53315732      -2.98091965       0.63749558
H        2.11435186      -1.55794317      -0.75817406
H        4.63720982      -4.35737808       2.04864411
H        5.06281902      -4.53521875       3.72106727
H        7.41923520      -0.63831443       2.95404922
H        8.25531686       0.59718628       4.91297935
H        5.84316458      -1.86431802       7.50026351
H        5.01968464      -3.11272558       5.58035919
