142
Properties=species:S:1:pos:R:3 pbc="F F F"
C        1.79134056       1.79134056      -1.79134056
C        1.21140033       2.79337508      -2.56533948
C        2.02132420       3.60667305      -3.36108077
C        3.41024562       3.41475062      -3.39205462
C        3.98305184       2.39917268      -2.61701913
C        3.17112428       1.59133329      -1.81301700
C        4.22335703       4.32434759      -4.24917596
O        3.74568817       5.40513081      -4.59700960
C        5.59619601       3.91050694      -4.70741972
C        5.59642191       2.71600083      -5.62437039
O        6.01248086       1.62737354      -5.22610388
C        5.08020802       2.84468308      -7.02457941
C        5.10670072       1.70735237      -7.84630177
C        4.62274411       1.76317027      -9.15730228
C        4.10595694       2.95765787      -9.65123924
C        4.07811108       4.09669829      -8.85004611
C        4.56987846       4.04296390      -7.54058425
H        0.13614659       2.95407247      -2.55504944
H        1.56176390       4.39258387      -3.95845691
H        5.05465330       2.21832392      -2.60830740
H        3.62550775       0.81131106      -1.20701425
H        6.22971139       3.70736650      -3.83586619
H        6.08347595       4.75246867      -5.21287250
H        5.50488478       0.76570946      -7.47071669
H        4.65152600       0.87130150      -9.77799451
H        3.67423072       5.03264241      -9.23058505
H        4.53160217       4.95665389      -6.95422543
C        3.59659302       3.01747249     -10.99681369
C        3.17000074       3.06756723     -12.12373230
Br       2.48023711       3.14856619     -13.94586437
C       -1.79134056      -1.79134056      -1.79134056
C       -2.97561245      -2.31537688      -1.27912556
C       -3.78654564      -3.11097517      -2.09155721
C       -3.41171344      -3.39184665      -3.41349077
C       -2.21502813      -2.86752177      -3.91669375
C       -1.40837369      -2.06277252      -3.10432835
C       -4.32620418      -4.23460405      -4.23607236
O       -5.50452499      -4.34780860      -3.89549499
C       -3.80567109      -4.96111045      -5.44734113
C       -2.78633795      -6.02251746      -5.12793772
O       -1.60074718      -5.85118088      -5.41403023
C       -3.20940271      -7.28964468      -4.45042313
C       -2.22694130      -8.25432082      -4.17909274
C       -2.55995160      -9.44956927      -3.53369578
C       -3.87836063      -9.68348625      -3.15300717
C       -4.86599140      -8.73841520      -3.42044889
C       -4.53418380      -7.54564165      -4.07360116
H       -3.27984318      -2.10963443      -0.25579089
H       -4.71447743      -3.51176433      -1.68656292
H       -1.88854720      -3.05689751      -4.93583991
H       -0.48552115      -1.65190361      -3.50640829
H       -3.37888242      -4.23978622      -6.15427544
H       -4.64245824      -5.41704326      -5.98931562
H       -1.19110899      -8.08191451      -4.46828742
H       -1.78459907     -10.18419539      -3.33202755
H       -5.89784285      -8.91553231      -3.12408301
H       -5.33771134      -6.84001176      -4.26475840
C       -4.22437069     -10.90786694      -2.47864157
C       -4.51415411     -11.93328578      -1.91386039
Br      -4.98270939     -13.59130130      -1.00065698
C       -1.79134056       1.79134056       1.79134056
C       -2.87799342       1.23259714       2.45952432
C       -3.67521721       2.03849445       3.27536636
C       -3.39399840       3.40504721       3.41800525
C       -2.30448878       3.95933361       2.73542125
C       -1.50108312       3.14851669       1.92587476
C       -4.27203153       4.21025190       4.31459715
O       -4.95215807       3.63221890       5.16345161
C       -4.34780037       5.70573762       4.16058468
C       -4.93596889       6.15252192       2.84830231
O       -4.21770018       6.66135536       1.98690275
C       -6.39843410       5.97041946       2.58061696
C       -6.90455222       6.40859462       1.34720802
C       -8.25853816       6.24982794       1.03485055
C       -9.11237050       5.64770693       1.95477662
C       -8.62646660       5.21281398       3.18557490
C       -7.27295288       5.37898780       3.50148593
H       -3.11162826       0.17561418       2.35802607
H       -4.51917258       1.59347426       3.80015784
H       -2.04865009       5.01215016       2.82048437
H       -0.65130539       3.58542647       1.40710119
H       -3.34859492       6.13983943       4.28450973
H       -4.93698696       6.12969762       4.98213254
H       -6.24635090       6.87778054       0.61717948
H       -8.63134512       6.59540996       0.07406692
H       -9.28911230       4.74047261       3.90787327
H       -6.93985485       5.02839223       4.47423441
C      -10.50507809       5.47223151       1.63356961
C      -11.67147070       5.32527084       1.36455873
Br     -13.55742889       5.08764787       0.92959091
C        1.79134056      -1.79134056       1.79134056
C        2.28658125      -1.29070345       2.99283018
C        3.08220955      -2.10339227       3.80347620
C        3.39188272      -3.41382399       3.41134415
C        2.89640810      -3.90524442       2.19759112
C        2.09156073      -3.09284866       1.39106518
C        4.23309040      -4.23763696       4.32615322
O        4.32064975      -3.91538781       5.51179102
C        4.98882734      -5.42746038       3.79783495
C        6.06159558      -5.07290310       2.80229445
O        5.91511213      -5.34153534       1.60931082
C        7.30967663      -4.38152563       3.25826826
C        8.28594373      -4.07728245       2.29712868
C        9.46422816      -3.41768222       2.66130627
C        9.66942670      -3.05569905       3.98972829
C        8.71260579      -3.35581367       4.95643603
C        7.53690785      -4.02314595       4.59337280
H        2.05830321      -0.27631661       3.31064869
H        3.46037645      -1.70763576       4.74479247
H        3.10862633      -4.91533874       1.85731955
H        1.70318185      -3.48594777       0.45470344
H        4.28695779      -6.13901692       3.34696937
H        5.43983250      -5.97591723       4.63306740
H        8.13592817      -4.35159262       1.25379013
H       10.20822241      -3.19048420       1.90211541
H        8.86727515      -3.07418721       5.99599582
H        6.82124862      -4.23983030       5.38140256
C       10.87612169      -2.36687124       4.36788627
C       11.88672875      -1.78997795       4.68459357
Br      13.52079488      -0.85719030       5.19668250
C       -0.00445707       0.01189536      -1.78238275
H       -0.66409135       0.67374010      -2.43557963
H        0.65740317      -0.63156657      -2.45157240
C       -0.90989263      -0.90692880      -0.91072765
C        0.90977584       0.90977584      -0.90977584
C       -0.00465871       1.77757030       0.00794375
H       -0.66225468       2.44313916      -0.64384735
H        0.64322798       2.43503045       0.67728295
C       -1.78241447       0.00034974      -0.00472694
H       -2.45427497      -0.65498947       0.64260836
H       -2.43311707       0.67328779      -0.65473579
C       -0.91132561       0.90220522       0.91563759
C       -0.01476271      -0.02253852       1.78660255
H       -0.67934791      -0.69751639       2.42135241
H        0.63392994       0.61504881       2.47327442
C        0.01484550      -1.77751727      -0.01636693
H        0.67870853      -2.42144646      -0.68295456
H       -0.62264859      -2.45592969       0.64226336
C        1.78714474       0.01002794       0.00389507
H        2.44202412       0.67113390       0.66197326
H        2.45385902      -0.65136977      -0.64189061
C        0.91606151      -0.90478549       0.90901405
