182
Properties=species:S:1:pos:R:3 pbc="F F F"
C        6.55736358       5.58525693      -2.83738245
C        5.16334072       6.12242277      -3.12683858
C        4.49358369       5.46327234      -4.33674253
N        4.31646703       4.03411727      -4.19773433
C        3.37693467       3.42144716      -3.35752055
C        2.38487991       4.01162108      -2.59557395
C        1.58479739       3.18148549      -1.80413759
C        1.79252280       1.79252280      -1.79252280
C        2.79123236       1.20497640      -2.56964636
C        3.57545720       2.03668944      -3.35542849
C        4.70262492       1.68283627      -4.28674928
O        5.73583004       1.05360866      -3.52707688
C        4.32970887       0.77871933      -5.45892409
C        3.23459172       1.36822562      -6.33066121
O        2.06652035       1.28618281      -5.94128449
C        3.55630536       2.05397205      -7.57765372
C        2.70035468       2.87804687      -8.29295671
C        3.29727084       3.40082719      -9.47787527
C        4.57829044       2.93581002      -9.62544456
S        5.05886286       1.89501622      -8.38204363
C        5.17686250       3.08797711      -4.75801052
O        6.16358689       3.29433994      -5.45008274
H        7.01038061       6.14321243      -2.01155827
H        7.20768639       5.68454125      -3.71181495
H        6.52619709       4.53108699      -2.54507093
H        5.23341549       7.20068082      -3.31250339
H        4.54444436       5.99670782      -2.23171313
H        5.10100079       5.65260506      -5.23009499
H        3.51346354       5.91877921      -4.51867856
H        2.21925269       5.08266005      -2.59618823
H        0.80031431       3.62249082      -1.19368028
H        2.95765549       0.13266757      -2.56147676
H        6.56797059       1.20464559      -4.01431259
H        3.96293116      -0.18794536      -5.08666829
H        5.21863620       0.51977684      -6.04107864
H        1.68850117       3.09793422      -7.96814382
H        2.80402092       4.07117482     -10.17130038
C        5.42946087       3.28819647     -10.73221132
C        6.14231611       3.58332013     -11.65912849
Br       7.29494274       4.06051012     -13.15787515
C       -3.76114122      -4.00206678      -7.21679496
C       -4.78202963      -3.28566252      -6.34490992
C       -5.15472815      -4.06136222      -5.07750820
N       -4.03349648      -4.31559740      -4.19922475
C       -3.40056277      -3.34767896      -3.40766065
C       -3.75472277      -2.02500612      -3.21234604
C       -2.93623256      -1.24123694      -2.39295096
C       -1.79252280      -1.79252280      -1.79252280
C       -1.44660263      -3.12971239      -1.98954008
C       -2.26828877      -3.89989112      -2.79939524
C       -2.14610592      -5.35159222      -3.17451234
O       -0.91136330      -5.53656686      -3.86858542
C       -2.21391804      -6.34019464      -2.01323960
C       -3.49958383      -6.22028653      -1.21360820
O       -3.59710971      -5.30376242      -0.39311551
C       -4.61103063      -7.13833887      -1.43856163
C       -5.91464026      -6.95414042      -1.00257758
C       -6.77795896      -8.02809683      -1.36991752
C       -6.08943653      -8.99602101      -2.05408746
S       -4.44871113      -8.63618442      -2.25102715
C       -3.33625560      -5.52466128      -4.16193325
O       -3.55933746      -6.53480639      -4.81386573
H       -3.59136597      -3.43564845      -8.13813690
H       -4.11003381      -5.00205119      -7.49195759
H       -2.79773857      -4.09805087      -6.70656558
H       -5.69282567      -3.12114957      -6.93262446
H       -4.39128806      -2.29550589      -6.08607137
H       -5.59721689      -5.02341074      -5.36307321
H       -5.92062331      -3.51604683      -4.51425117
H       -4.63380467      -1.59047749      -3.67381881
H       -3.19212594      -0.19744137      -2.22691811
H       -0.56212908      -3.55926296      -1.53040778
H       -1.02871893      -6.32152525      -4.43668459
H       -1.38172696      -6.16179312      -1.31813401
H       -2.04925434      -7.36119160      -2.36904573
H       -6.23026810      -6.07640414      -0.44790697
H       -7.83458769      -8.07596548      -1.13594295
C       -6.69678053     -10.20434653      -2.54874161
C       -7.20543112     -11.21631914      -2.96301446
Br      -8.02787612     -12.85259328      -3.63285862
C       -3.42669722       4.40494577       7.14835996
C       -4.44221592       3.48791467       6.48247147
C       -5.03441166       4.06594328       5.19324362
N       -4.04923430       4.33154105       4.16754327
C       -3.39360619       3.34917291       3.41312328
C       -3.60849092       1.98289680       3.40068722
C       -2.79417389       1.19858784       2.57765874
C       -1.79252280       1.79252280       1.79252280
C       -1.58730137       3.17246948       1.80608426
C       -2.40417956       3.94190167       2.62149390
C       -2.41465683       5.43236318       2.82519048
O       -1.14419943       5.82616306       3.34615309
C       -2.71963903       6.26510594       1.58260730
C       -4.05910678       5.91781634       0.95655544
O       -4.13389147       4.90612622       0.25396995
C       -5.24089402       6.73415936       1.21287775
C       -6.55235800       6.36421105       0.95478920
C       -7.49248055       7.37728194       1.30621082
C       -6.85442523       8.48575574       1.79936404
S       -5.17124696       8.32577152       1.83890422
C       -3.50662493       5.59431911       3.92190610
O       -3.77713531       6.64500853       4.48586573
H       -3.09579864       3.97163783       8.09771485
H       -3.85980389       5.38814108       7.35609762
H       -2.54015594       4.54093098       6.52126808
H       -5.26062461       3.29887945       7.18709564
H       -3.96722356       2.52073472       6.28490704
H       -5.55439816       5.00307332       5.42622935
H       -5.78581931       3.38088195       4.78422005
H       -4.37711816       1.51571833       4.00526448
H       -2.94170095       0.12146154       2.55332293
H       -0.81251941       3.63557290       1.20370751
H       -1.29265413       6.65572872       3.83854592
H       -1.94984946       6.09464317       0.81716146
H       -2.63960417       7.33243184       1.80745567
H       -6.81917393       5.39915258       0.53625271
H       -8.56609987       7.28615626       1.19424000
C       -7.54418719       9.67334173       2.23233975
C       -8.12186283      10.66794499       2.59495691
Br      -9.05591549      12.27613434       3.18127819
C        5.71011365      -6.46169443       2.80819488
C        4.37411188      -6.50295162       3.53553857
C        4.23732686      -5.43294175       4.62332995
N        4.34426497      -4.07882210       4.12523157
C        3.36169306      -3.42272014       3.37148917
C        2.08991626      -3.85735069       3.04480798
C        1.29885375      -3.02732915       2.24423757
C        1.79252280      -1.79252280       1.79252280
C        3.07426009      -1.35892829       2.13266674
C        3.84856620      -2.18714013       2.93186880
C        5.24312866      -1.97461670       3.45446511
O        6.12851421      -1.84727749       2.34072388
C        5.42613199      -0.76871484       4.37250545
C        4.52353706      -0.81689267       5.59304883
O        3.34024296      -0.49263473       5.46110995
C        5.02931578      -1.27650324       6.88211211
C        4.25423219      -1.64587812       7.97124795
C        5.03477549      -2.04528817       9.09590965
C        6.37400890      -1.94383411       8.82170200
S        6.69560259      -1.38050230       7.25981781
C        5.51338995      -3.31843476       4.19102543
O        6.58648342      -3.64104282       4.68048334
H        5.77604641      -7.29171479       2.09739012
H        6.54449792      -6.54876049       3.51078418
H        5.82780426      -5.53261145       2.24193929
H        4.25711251      -7.48887028       4.00061691
H        3.56893636      -6.40467937       2.79924960
H        5.01740063      -5.58771444       5.37858577
H        3.27487250      -5.53930818       5.13674064
H        1.70178300      -4.80978723       3.38653075
H        0.29652047      -3.34877760       1.97118734
H        3.46126179      -0.40718171       1.78335633
H        7.01105429      -2.11891727       2.65695721
H        5.18869319       0.15681873       3.82977963
H        6.47816923      -0.65312819       4.64819426
H        3.16925959      -1.63384942       7.95147020
H        4.62556074      -2.37923296      10.04170242
C        7.40680525      -2.27365304       9.76941038
C        8.27177220      -2.54987639      10.56311614
Br       9.67035060      -2.99650619      11.84647123
C       -0.00445707       0.01189536      -1.78238275
H       -0.66409135       0.67374010      -2.43557963
H        0.65740317      -0.63156657      -2.45157240
C       -0.90989263      -0.90692880      -0.91072765
C        0.90977584       0.90977584      -0.90977584
C       -0.00465871       1.77757030       0.00794375
H       -0.66225468       2.44313916      -0.64384735
H        0.64322798       2.43503045       0.67728295
C       -1.78241447       0.00034974      -0.00472694
H       -2.45427497      -0.65498947       0.64260836
H       -2.43311707       0.67328779      -0.65473579
C       -0.91132561       0.90220522       0.91563759
C       -0.01476271      -0.02253852       1.78660255
H       -0.67934791      -0.69751639       2.42135241
H        0.63392994       0.61504881       2.47327442
C        0.01484550      -1.77751727      -0.01636693
H        0.67870853      -2.42144646      -0.68295456
H       -0.62264859      -2.45592969       0.64226336
C        1.78714474       0.01002794       0.00389507
H        2.44202412       0.67113390       0.66197326
H        2.45385902      -0.65136977      -0.64189061
C        0.91606151      -0.90478549       0.90901405
