189
Properties=species:S:1:pos:R:3 pbc="F F F"
C        0.00000000       0.00000000       0.00000000
C        0.88160076       0.88160076      -0.88160076
C        1.67341401       0.29944251      -1.87057346
C        2.48175313       1.10757829      -2.67325229
C        2.50771958       2.49453148      -2.48052864
C        1.69964090       3.07281469      -1.49127556
C        0.88761069       2.26249254      -0.69216932
C        3.41025162       3.31167891      -3.33844791
O        3.73871986       2.89196737      -4.44666825
C        3.90006457       4.64483882      -2.78468834
O        5.09954393       5.11866973      -3.39773316
C        6.21168850       4.42376744      -3.04010825
O        6.23418387       3.44446213      -2.31362936
C        7.41997399       5.09889224      -3.58196402
C        7.41453787       6.49595771      -3.59784194
C        8.55856697       7.16554114      -3.98070457
N        9.68284953       6.48933262      -4.31065069
C        9.71577389       5.14129845      -4.30624699
C       10.91525454       4.49055003      -4.64621443
C       12.12278588       5.33073895      -4.99104061
C       10.95873645       3.08828241      -4.71222807
Cl      12.37966109       2.22599531      -5.18972906
C        9.83639484       2.33148472      -4.39909496
C        8.65916345       2.96838111      -4.02068888
C        8.57792651       4.37856449      -3.96149786
C        8.65364455       8.64095553      -4.00467292
C        9.87951161       9.28592366      -3.75212141
C        9.98467975      10.68103083      -3.73953560
C        8.85881317      11.45899482      -3.98597937
Br       8.99096260      13.34363466      -3.96017150
C        7.63504490      10.85507955      -4.25448834
C        7.53694564       9.45880553      -4.26752410
H        1.67258854      -0.77668457      -2.02306014
H        3.10343992       0.64973795      -3.44176911
H        1.67560237       4.14656162      -1.32937826
H        0.26376117       2.71691780       0.07490082
H        4.04950352       4.58955831      -1.70048270
H        3.12564515       5.39374930      -2.98136966
H        6.53965953       7.04740060      -3.27103528
H       13.06407822       4.79915281      -4.82623106
H       12.17962160       6.22078644      -4.35433529
H       12.07272484       5.64411806      -6.03830013
H        9.86736989       1.24510595      -4.44701391
H        7.79837651       2.34322981      -3.78636442
H       10.77183795       8.69286124      -3.55313794
H       10.94683233      11.14239350      -3.53432844
H        6.75258029      11.45620866      -4.45849483
H        6.56937672       9.02015840      -4.50243551
C       -0.88160076      -0.88160076      -0.88160076
C       -1.45670536      -2.03562344      -0.35110118
C       -2.25971796      -2.84235907      -1.16050669
C       -2.47857536      -2.50272551      -2.50147883
C       -1.90568934      -1.33434462      -3.02369718
C       -1.10618328      -0.52569972      -2.21038955
C       -3.31472317      -3.41120444      -3.33445084
O       -4.15089279      -4.13274846      -2.79371423
C       -3.07904939      -3.40999121      -4.84055114
O       -3.52145955      -4.59963624      -5.49485102
C       -2.73956415      -5.68455302      -5.25144702
O       -1.77330427      -5.71113145      -4.50783965
C       -3.17240278      -6.81700583      -6.11142163
C       -3.59528990      -6.50666354      -7.40638409
C       -3.89281411      -7.53424255      -8.27775603
N       -3.75350418      -8.82656795      -7.90276071
C       -3.34947770      -9.15495543      -6.65888620
C       -3.21022773     -10.51452897      -6.32726230
C       -3.50795988     -11.55227783      -7.38432773
C       -2.85359170     -10.88528106      -5.02037416
Cl      -2.73159171     -12.53790672      -4.52588703
C       -2.59074304      -9.91753959      -4.05869189
C       -2.68525313      -8.57054778      -4.39243253
C       -3.05891874      -8.16489317      -5.69417695
C       -4.32375290      -7.30241176      -9.67310834
C       -4.00465610      -8.22653803     -10.68636255
C       -4.37595023      -8.01126493     -12.01803102
C       -5.08162000      -6.86277113     -12.35939623
Br      -5.57720490      -6.56016297     -14.15740089
C       -5.42705772      -5.93613898     -11.38141609
C       -5.05427437      -6.15838006     -10.05062083
H       -1.28535806      -2.31798322       0.68437718
H       -2.70362013      -3.74628048      -0.74504637
H       -2.07310169      -1.02663421      -4.05180635
H       -0.66311243       0.37905535      -2.62172108
H       -2.02086900      -3.24553449      -5.07314104
H       -3.65198884      -2.58049495      -5.26828032
H       -3.64585757      -5.47501724      -7.73722059
H       -2.99095961     -12.49813537      -7.20036710
H       -3.16208589     -11.22228491      -8.37037253
H       -4.58488764     -11.74119838      -7.42905701
H       -2.31204797     -10.20130998      -3.04613180
H       -2.47606434      -7.83995213      -3.61195428
H       -3.44881120      -9.13051300     -10.43851293
H       -4.10593348      -8.74450450     -12.77311629
H       -5.98773878      -5.04101462     -11.63853039
H       -5.35975058      -5.42371286      -9.30850719
C       -0.88160076       0.88160076       0.88160076
C       -0.34216208       1.48369579       2.01757211
C       -1.15150661       2.28666680       2.82441030
C       -2.50108811       2.47860146       2.50309013
C       -3.03251241       1.87862390       1.35259483
C       -2.21935396       1.07918978       0.54372881
C       -3.33290842       3.31597106       3.41149897
O       -2.79435359       4.17222416       4.11077773
C       -4.83482335       3.05634038       3.43842800
O       -5.47716218       3.50747352       4.63131111
C       -5.20387359       2.74722523       5.72446537
O       -4.44438896       1.79349364       5.75439277
C       -6.05259038       3.18458605       6.86365381
C       -7.35901099       3.58170516       6.56762136
C       -8.21860222       3.88190677       7.60430370
N       -7.82085617       3.76953324       8.89244343
C       -6.56552818       3.39074806       9.20704309
C       -6.21007180       3.27883228      10.56311493
C       -7.25514991       3.57644762      11.61296792
C       -4.89183876       2.94911533      10.91829284
Cl      -4.36917102       2.86178522      12.56442921
C       -3.94156853       2.68598821       9.93941777
C       -4.29821620       2.75334566       8.59667158
C       -5.61213873       3.09960460       8.20624553
C       -9.62426616       4.28674712       7.38825972
C      -10.61736712       3.96655101       8.33363855
C      -11.95813406       4.31304493       8.13406719
C      -12.32913736       4.99449692       6.98015307
Br     -14.13952425       5.45640485       6.69883966
C      -11.37176781       5.34042453       6.03242045
C      -10.03173871       4.99254069       6.23899587
H        0.70032261       1.33346389       2.28582282
H       -0.72893816       2.75171061       3.71429822
H       -4.06797003       2.02462880       1.05894342
H       -2.63782143       0.61502937      -0.34707264
H       -5.05283963       1.99206413       3.29464077
H       -5.28493629       3.60888538       2.60694243
H       -7.70701907       3.61028387       5.54079246
H       -7.04779429       3.07782728      12.56384052
H       -8.24059794       3.20960809      11.30453731
H       -7.31429499       4.65544373      11.78540430
H       -2.92023555       2.42809392      10.21116028
H       -3.52619343       2.54481713       7.85696019
H      -10.34617738       3.42943591       9.24222385
H      -12.69696898       4.04293900       8.88364628
H      -11.65215712       5.88237022       5.13275644
H       -9.30646897       5.29786712       5.48763454
C        0.88160076      -0.88160076       0.88160076
C        2.02650423      -1.47046658       0.34645917
C        2.82929380      -2.27943394       1.15385597
C        2.48247341      -2.50913653       2.49116976
C        1.33560972      -1.90378026       3.02434116
C        0.53610675      -1.09047869       2.21568711
C        3.35095899      -3.40563581       3.30378365
O        4.53373050      -3.54579589       2.99782909
C        2.71570192      -4.12675790       4.48713191
O        3.42173894      -5.29895066       4.89525722
C        3.29583278      -6.34423237       4.03549904
O        2.69680100      -6.32204171       2.97343266
C        3.90964238      -7.55972302       4.63146484
C        3.76292272      -7.73569745       6.00971734
C        4.21240542      -8.90559064       6.58681663
N        4.76290585      -9.88572235       5.83420464
C        4.91885391      -9.74191340       4.50255202
C        5.48613448     -10.79826318       3.76762134
C        5.88675323     -12.05744851       4.50036371
C        5.71907397     -10.64959151       2.39058144
Cl       6.47527686     -11.88032702       1.43978158
C        5.35118056      -9.48154967       1.73424428
C        4.75057325      -8.44973763       2.44792256
C        4.51848550      -8.56148436       3.83801900
C        4.07776456      -9.18986619       8.03164225
C        3.91519993     -10.51062661       8.49173013
C        3.75518255     -10.79853780       9.85152583
C        3.76021120      -9.76349903      10.78007713
Br       3.53407401     -10.14368637      12.61700838
C        3.93401278      -8.44834107      10.36225894
C        4.09553497      -8.16718481       9.00055548
H        2.30104116      -1.31092427      -0.69300132
H        3.72044961      -2.74259988       0.73189749
H        1.04882273      -2.03961839       4.06310113
H       -0.35351310      -0.62456823       2.63472303
H        1.67418820      -4.39208934       4.27326698
H        2.72117313      -3.43970020       5.33989078
H        3.26264718      -6.98440679       6.61104145
H        5.90939642     -12.93361323       3.84645243
H        5.16433036     -12.30376601       5.28664698
H        6.87505711     -11.92807690       4.95200901
H        5.52811613      -9.36407236       0.66730126
H        4.47933431      -7.54736237       1.90127406
H        3.90488876     -11.33447371       7.77847466
H        3.62590141     -11.83009707      10.16755578
H        3.94962921      -7.63468020      11.08297438
H        4.25072442      -7.12983403       8.71141219
