113
Properties=species:S:1:pos:R:3 pbc="F F F"
C        0.00000000       0.00000000       0.00000000
C        0.88212660       0.88212660      -0.88212660
C        2.01600280       0.32354762      -1.50147455
C        2.84152357       1.10146254      -2.32594854
C        2.51356268       2.43224487      -2.50569420
N        3.16438635       3.40996782      -3.27919864
C        4.29693938       3.17572997      -4.15293033
C        5.58966897       2.87805672      -3.42499384
C        6.04151868       3.79217840      -2.45225213
C        7.23768811       3.58342844      -1.76252339
C        8.01180528       2.46126364      -2.03596302
C        7.59592608       1.55456794      -3.00833704
C        6.40006911       1.76363270      -3.70694358
Br       5.96481868       0.47704190      -5.03802183
C        2.49642403       4.62371468      -3.20229973
O        2.74797617       5.67607178      -3.74748998
C        1.29576799       4.37134340      -2.25573490
O        0.45055091       5.16575636      -1.90954551
C        1.38817145       2.96359864      -1.87383709
C        0.54996287       2.22262151      -1.06266652
H        2.26241097      -0.72540258      -1.34472636
H        3.70897793       0.64963466      -2.79139567
H        4.46220583       4.06542387      -4.77378509
H        3.99747757       2.38179880      -4.84138590
H        5.46345301       4.68893375      -2.23126705
H        7.56768219       4.30312155      -1.01678761
H        8.94460639       2.29769842      -1.50200453
H        8.21860319       0.68847885      -3.22189514
H       -0.32152581       2.67348471      -0.59986822
C       -0.88212660      -0.88212660      -0.88212660
C       -2.02782833      -0.32891007      -1.48428656
C       -2.85381850      -1.10684045      -2.30827571
C       -2.51430255      -2.43233257      -2.50486664
N       -3.16307945      -3.40878480      -3.28168856
C       -4.30677881      -3.17729736      -4.14152350
C       -5.59496198      -2.90016421      -3.39759334
C       -6.02763792      -3.82860419      -2.42970711
C       -7.21876333      -3.63901624      -1.72586036
C       -8.00690255      -2.52209517      -1.98003423
C       -7.61011479      -1.60145054      -2.94726573
C       -6.41938907      -1.79126691      -3.65998942
Br      -6.01071706      -0.48695165      -4.98221369
C       -2.48216279      -4.61637797      -3.22389768
O       -2.72863075      -5.66569171      -3.77721547
C       -1.27453250      -4.36134698      -2.28696681
O       -0.41786469      -5.15055921      -1.95742888
C       -1.37723203      -2.95853926      -1.88983589
C       -0.53831838      -2.21727948      -1.07965303
H       -2.28319218       0.71584155      -1.31438412
H       -3.73048150      -0.65920200      -2.76032476
H       -4.46938106      -4.06232262      -4.76971111
H       -4.02236712      -2.37345469      -4.82484046
H       -5.43833747      -4.72160716      -2.22370918
H       -7.53386930      -4.36951714      -0.98420492
H       -8.93581787      -2.37343360      -1.43505787
H       -8.24363719      -0.73964002      -3.14569997
H        0.34234181      -2.66388554      -0.63028339
C       -0.88212660       0.88212660       0.88212660
C       -0.36640120       2.09271389       1.38190988
C       -1.15177058       2.93157868       2.18558540
C       -2.44214808       2.53129016       2.47806352
N       -3.42243826       3.18670938       3.24440517
C       -3.29574344       4.51177239       3.81808385
C       -2.32287690       4.59585593       4.97398669
C       -2.49681469       3.72272159       6.06641294
C       -1.64465573       3.76714121       7.17184298
C       -0.60579389       4.69037685       7.21286121
C       -0.42713054       5.57772952       6.15397100
C       -1.28359058       5.54075812       5.04629670
Br      -0.96114801       6.83140452       3.68732988
C       -4.59738276       2.44928795       3.27576774
O       -5.65282057       2.70635478       3.81236258
C       -4.30508257       1.17715619       2.44060753
O       -5.05823966       0.25808806       2.20952506
C       -2.92683389       1.32235983       1.97641345
C       -2.18222116       0.47764325       1.17538648
H        0.65410226       2.39004382       1.14579319
H       -0.73291529       3.85805644       2.55903652
H       -4.27663814       4.84029504       4.18448161
H       -3.04412019       5.18308197       2.99346011
H       -3.31373944       3.00175323       6.06816114
H       -1.79864708       3.08448718       8.00445710
H        0.05756813       4.72850463       8.07337283
H        0.38102256       6.30411636       6.20588338
H       -2.60271031      -0.44821723       0.79733404
C        0.88212660      -0.88212660       0.88212660
C        0.28698243      -1.88973346       1.66430907
C        1.06751937      -2.72430877       2.47710651
C        2.43507040      -2.52331998       2.49311138
N        3.42619099      -3.22040929       3.20695253
C        3.20503083      -4.39812307       4.02244578
C        2.45504234      -4.12888765       5.30878954
C        2.95359276      -3.14565910       6.18669736
C        2.31784603      -2.86729496       7.39849894
C        1.17532697      -3.57112346       7.76258151
C        0.67606500      -4.56222143       6.92054462
C        1.31445530      -4.84893991       5.70725019
Br       0.56010927      -6.25167244       4.66810070
C        4.68575780      -2.71067548       2.92600517
O        5.76906093      -3.06909248       3.33338452
C        4.44457517      -1.54865679       1.92961434
O        5.27456402      -0.82629274       1.42499602
C        2.99946138      -1.51201504       1.71413075
C        2.25989929      -0.67869298       0.89665862
H       -0.79249620      -2.03071883       1.64351212
H        0.58693621      -3.49246349       3.07060856
H        4.17436837      -4.83842022       4.28862619
H        2.70990504      -5.13051581       3.38024142
H        3.85739119      -2.59191510       5.93434751
H        2.72125443      -2.10507368       8.06126324
H        0.67988970      -3.35788200       8.70653763
H       -0.21036499      -5.11465599       7.22468619
H        2.74114750       0.08786817       0.29854778
