142
Properties=species:S:1:pos:R:3 pbc="F F F"
C        1.79163750       1.79163750      -1.79163750
C        2.73260143       2.63584840      -1.20604820
C        3.53735904       3.44617734      -2.01190400
C        3.40543756       3.41798031      -3.40821598
C        2.44709046       2.56444549      -3.97954433
C        1.64497556       1.75176351      -3.17529916
C        4.25808445       4.30762370      -4.28456565
N        5.17102958       3.56467371      -5.12124525
C        6.44487436       3.10826401      -4.74289448
C        7.11258584       3.28130752      -3.54527735
C        8.40076073       2.73782251      -3.42643622
C        8.99072178       2.03480698      -4.49501498
C        8.31597649       1.85600639      -5.69956846
C        7.05109745       2.40488852      -5.78518448
C        6.11503212       2.39334992      -6.90720361
O        6.28204267       1.87833697      -7.98836679
C        4.87575789       3.18036122      -6.42040710
O        3.87811263       3.38959791      -7.07778353
H        2.84267104       2.67360669      -0.12529723
H        4.25894608       4.10618160      -1.53603983
H        2.30942580       2.53312005      -5.05974075
H        0.90912021       1.09996044      -3.63901730
H        4.82597045       5.02836078      -3.68502358
H        3.59088333       4.89946280      -4.92407249
H        6.67657656       3.82035495      -2.71185005
H        8.94684548       2.86619365      -2.49320684
H        8.74948153       1.31936701      -6.53698488
C       10.31709140       1.49611709      -4.33959031
C       11.42792596       1.04496431      -4.20942215
Br      13.22405149       0.31548841      -3.99895125
C       -1.79163750      -1.79163750      -1.79163750
C       -3.17166285      -1.80209226      -1.60074293
C       -3.97919248      -2.61171120      -2.40453669
C       -3.41157932      -3.41655368      -3.40350085
C       -2.01768507      -3.39660872      -3.57678651
C       -1.21032778      -2.58524680      -2.77646366
C       -4.27733032      -4.31069272      -4.26225076
N       -4.28553940      -3.91915564      -5.65225349
C       -5.12223619      -2.94735837      -6.22643829
C       -6.11516457      -2.19123666      -5.63276948
C       -6.83003761      -1.29411452      -6.44086732
C       -6.53962149      -1.16754480      -7.81337745
C       -5.53586088      -1.92544635      -8.41024411
C       -4.85250481      -2.80050391      -7.58816173
C       -3.77018769      -3.72398016      -7.92141780
O       -3.25896333      -3.88441135      -9.00537175
C       -3.42498989      -4.45092944      -6.60060689
O       -2.56983228      -5.30173875      -6.47392304
H       -3.62600696      -1.18870819      -0.82685981
H       -5.05321845      -2.61429748      -2.23365157
H       -1.54610514      -4.02350133      -4.33268013
H       -0.13395879      -2.58670357      -2.92743559
H       -5.30830480      -4.33981245      -3.89123756
H       -3.89446216      -5.33619333      -4.18376312
H       -6.35485460      -2.27509916      -4.57882781
H       -7.61977497      -0.69165366      -5.99481735
H       -5.29432509      -1.84646689      -9.46504145
C       -7.29811096      -0.24119931      -8.61348853
C       -7.93334590       0.53461504      -9.28358156
Br      -8.96046706       1.78904123     -10.36706532
C       -1.79163750       1.79163750       1.79163750
C       -1.37964247       2.11127752       3.08357804
C       -2.18771182       2.91491753       3.89281103
C       -3.41315629       3.40305158       3.41542598
C       -3.81387668       3.06506356       2.11214006
C       -3.00543976       2.26504828       1.30155019
C       -4.30189685       4.25525192       4.29312503
N       -4.44549025       5.60668456       3.80477371
C       -3.56411077       6.67033778       4.06158430
C       -2.41861068       6.68589292       4.83466712
C       -1.71915419       7.89692377       4.94894150
C       -2.17085261       9.05801043       4.29168070
C       -3.32186674       9.04099621       3.50868840
C       -3.98844049       7.83432786       3.41840210
C       -5.21393547       7.51010373       2.69154646
O       -5.87663446       8.25961478       2.01249718
C       -5.48254124       6.01442429       2.97956068
O       -6.42009725       5.37700835       2.54838848
H       -0.43565180       1.73577062       3.47015254
H       -1.85410058       3.14505882       4.90200810
H       -4.76797245       3.41479172       1.71952243
H       -3.33615678       2.01515084       0.29679033
H       -3.93152669       4.28347242       5.32435570
H       -5.29274450       3.78540185       4.33627226
H       -2.05551550       5.80368071       5.34958535
H       -0.81645519       7.93303757       5.55675321
H       -3.69012560       9.92206713       2.99364069
C       -1.43113454      10.28495080       4.43671346
C       -0.81162066      11.31251337       4.55817839
Br       0.19008089      12.97399512       4.75457692
C        1.79163750      -1.79163750       1.79163750
C        1.48812258      -1.94350314       3.14287231
C        2.29673036      -2.74707741       3.95163261
C        3.41434456      -3.40293786       3.41435144
C        3.70724385      -3.23280096       2.05103549
C        2.89778938      -2.43290508       1.24134378
C        4.30537794      -4.25654041       4.28835545
N        4.26938642      -5.65554215       3.93201995
C        3.32327086      -6.59269846       4.38006353
C        2.26814379      -6.41600330       5.25502362
C        1.47342436      -7.53144648       5.56014862
C        1.74283168      -8.78997940       4.98773266
C        2.80252388      -8.96673759       4.10228987
C        3.56677290      -7.84993019       3.82446736
C        4.73499476      -7.72498800       2.95560289
O        5.24981795      -8.60004390       2.29888458
C        5.17183297      -6.24495854       3.05973471
O        6.11525928      -5.75209217       2.47814262
H        0.62910856      -1.43701305       3.57545336
H        2.04981620      -2.84512896       5.00622234
H        4.57806227      -3.71538911       1.60883522
H        3.14416118      -2.31457373       0.18936304
H        4.04338584      -4.14876861       5.34720035
H        5.33516591      -3.89044318       4.18880952
H        2.04536931      -5.45621704       5.70719521
H        0.63954884      -7.41595580       6.25074133
H        3.03050493      -9.92594369       3.64938480
C        0.90995314      -9.91408490       5.32876077
C        0.21241736     -10.85552325       5.61437180
Br      -0.91543900     -12.37774945       6.07618070
C       -0.00445707       0.01189536      -1.78238275
H       -0.66409135       0.67374010      -2.43557963
H        0.65740317      -0.63156657      -2.45157240
C       -0.90989263      -0.90692880      -0.91072765
C        0.90977584       0.90977584      -0.90977584
C       -0.00465871       1.77757030       0.00794375
H       -0.66225468       2.44313916      -0.64384735
H        0.64322798       2.43503045       0.67728295
C       -1.78241447       0.00034974      -0.00472694
H       -2.45427497      -0.65498947       0.64260836
H       -2.43311707       0.67328779      -0.65473579
C       -0.91132561       0.90220522       0.91563759
C       -0.01476271      -0.02253852       1.78660255
H       -0.67934791      -0.69751639       2.42135241
H        0.63392994       0.61504881       2.47327442
C        0.01484550      -1.77751727      -0.01636693
H        0.67870853      -2.42144646      -0.68295456
H       -0.62264859      -2.45592969       0.64226336
C        1.78714474       0.01002794       0.00389507
H        2.44202412       0.67113390       0.66197326
H        2.45385902      -0.65136977      -0.64189061
C        0.91606151      -0.90478549       0.90901405
