113
Properties=species:S:1:pos:R:3 pbc="F F F"
C        0.00000000       0.00000000       0.00000000
C        0.88173347       0.88173347      -0.88173347
C        1.82269741       1.72594438      -0.29614417
C        2.62745502       2.53627331      -1.10199998
C        2.49553353       2.50807629      -2.49831196
C        1.53718644       1.65454147      -3.06964031
C        0.73507154       0.84185948      -2.26539514
C        3.34818042       3.39771968      -3.37466162
N        4.26112555       2.65476968      -4.21134122
C        5.53497034       2.19835999      -3.83299045
C        6.20268182       2.37140350      -2.63537333
C        7.49085670       1.82791849      -2.51653219
C        8.08081776       1.12490296      -3.58511096
Br       9.82257244       0.41750916      -3.38101126
C        7.40607246       0.94610237      -4.78966444
C        6.14119342       1.49498449      -4.87528046
C        5.20512810       1.48344590      -5.99729959
O        5.37213865       0.96843294      -7.07846277
C        3.96585387       2.27045719      -5.51050308
O        2.96820861       2.47969389      -6.16787950
H        1.93276701       1.76370267       0.78460680
H        3.34904205       3.19627758      -0.62613580
H        1.39952178       1.62321603      -4.14983672
H       -0.00078382       0.19005642      -2.72911328
H        3.91606642       4.11845676      -2.77511956
H        2.68097930       3.98955877      -4.01416846
H        5.76667253       2.91045093      -1.80194603
H        8.03694145       1.95628963      -1.58330282
H        7.83957751       0.40946298      -5.62708086
C       -0.88173347      -0.88173347      -0.88173347
C       -2.25072727      -0.95908862      -0.63497007
C       -3.05801119      -1.76885725      -1.43885987
C       -2.50112523      -2.50697254      -2.49382401
C       -1.11792266      -2.42027301      -2.72317255
C       -0.31103093      -1.60862937      -1.92266586
C       -3.36541111      -3.40134900      -3.35380161
N       -3.44918842      -2.95379062      -4.72425742
C       -4.34888837      -1.99595402      -5.22147839
C       -5.34569233      -1.30804439      -4.55572193
C       -6.13073184      -0.40993333      -5.29464221
C       -5.90478343      -0.21480903      -6.67123921
Br      -6.99397875       0.99999258      -7.62710668
C       -4.89723015      -0.90390033      -7.34070879
C       -4.14395920      -1.78190907      -6.58559011
C       -3.03990478      -2.64374205      -7.00222675
O       -2.56940119      -2.73750577      -8.11212739
C       -2.60892505      -3.40885435      -5.72903474
O       -1.71492217      -4.22675493      -5.67410490
H       -2.69632016      -0.39800535       0.18246262
H       -4.12272403      -1.82443576      -1.22429564
H       -0.65379958      -2.99484163      -3.52393331
H        0.75703930      -1.55780394      -2.11762124
H       -4.37749105      -3.48978673      -2.94236496
H       -2.93775816      -4.41187463      -3.33507375
H       -5.53639585      -1.44528715      -3.49738650
H       -6.92471439       0.13934511      -4.79116462
H       -4.70452029      -0.77141786      -8.40018319
C       -0.88173347       0.88173347       0.88173347
C       -0.45548555       1.22685457       2.16244583
C       -1.26347099       2.03051309       2.97174424
C       -2.50306654       2.49318397       2.50567127
C       -2.91793441       2.12971539       1.21371842
C       -2.10965616       1.32966583       0.40300417
C       -3.39142087       3.34522629       3.38391456
N       -3.56256213       4.68687853       2.87779580
C       -2.69357973       5.76722748       3.10551357
C       -1.53710701       5.81139831       3.86095332
C       -0.85433842       7.03424946       3.94671951
C       -1.33315561       8.17848786       3.27918820
Br      -0.38341822       9.80658385       3.43109079
C       -2.49526610       8.13262738       2.51394578
C       -3.14486929       6.91498633       2.45160276
C       -4.37598815       6.56172505       1.74816039
O       -5.05988762       7.29102330       1.06812344
C       -4.61775352       5.06673149       2.06232914
O       -5.55190004       4.40906759       1.65481437
H        0.49967753       0.87124590       2.54029451
H       -0.91843461       2.28073792       3.97228290
H       -3.88290197       2.45931029       0.83036227
H       -2.45143585       1.05979894      -0.59284891
H       -3.00626816       3.39445203       4.40892254
H       -4.37433635       2.86143927       3.44893092
H       -1.15318087       4.94251614       4.38337248
H        0.05662754       7.09288703       4.54027441
H       -2.88433952       9.00029001       1.99149182
C        0.88173347      -0.88173347       0.88173347
C        0.60911335      -0.99213529       2.24353732
C        1.41785027      -1.79570896       3.05216908
C        2.50472454      -2.49304091       2.50415633
C        2.76688213      -2.36440916       1.13007693
C        1.95718376      -1.56451311       0.32062929
C        3.39625474      -3.34709098       3.37721601
N        3.31638232      -4.75315198       3.05770216
C        2.35898214      -5.65442142       3.55291722
C        1.33124930      -5.42914254       4.44906681
C        0.51706583      -6.51600507       4.80223649
C        0.74037950      -7.79485631       4.25559587
Br      -0.37794310      -9.23101249       4.76802347
C        1.77240550      -8.02057552       3.34885825
C        2.55686857      -6.93089272       3.02369709
C        3.70528543      -6.85746017       2.12312797
O        4.18124973      -7.76143821       1.47634641
C        4.18133032      -5.38692722       2.17855661
O        5.12157997      -4.93291985       1.56128218
H       -0.22571351      -0.45328296       2.68429343
H        1.19556420      -1.86115652       4.11473471
H        3.61385516      -2.87991532       0.67880405
H        2.17949901      -1.47871988      -0.73983302
H        3.16413032      -3.20635532       4.43915710
H        4.43195767      -3.00998141       3.24276745
H        1.14403685      -4.45303012       4.88200253
H       -0.29578365      -6.36212521       5.51019234
H        1.96481694      -8.99625925       2.91504516
