170
Properties=species:S:1:pos:R:3 pbc="F F F"
C        6.23623255       5.12536214      -3.44602924
C        4.88577427       5.29396671      -4.12274875
N        4.20855972       4.03043802      -4.30856492
C        3.40106956       3.40589033      -3.35226074
C        3.04525855       3.85606688      -2.09282834
C        2.22855373       3.03561713      -1.30740127
C        1.79232607       1.79232607      -1.79232607
C        2.15604056       1.34687594      -3.06353983
C        2.96105891       2.17214507      -3.83780289
C        3.51616803       1.92833764      -5.22337098
O        4.24753987       0.71780031      -5.16222540
C        2.39838180       1.89428432      -6.27273006
C        2.96721645       1.62314531      -7.65888691
O        3.91861289       0.84142508      -7.76579503
C        2.35137619       2.22053387      -8.84012416
C        2.77539132       2.04875764     -10.14959039
C        1.97585744       2.76283964     -11.09046594
C        0.97262135       3.44844219     -10.45731968
S        0.97317527       3.23535680      -8.77856181
C        4.37791178       3.21980271      -5.43574102
O        5.04804009       3.47692825      -6.42554219
H        6.71877094       6.09856325      -3.31332354
H        6.89917558       4.49377386      -4.04666676
H        6.13191269       4.65805394      -2.46156839
H        5.03913993       5.74976637      -5.10783558
H        4.24586372       5.97411255      -3.55096659
H        3.38710303       4.80869533      -1.70455199
H        1.94162767       3.36625515      -0.31171083
H        1.84228399       0.37589956      -3.43425082
H        4.62632011       0.57982551      -6.05753497
H        1.85606239       2.84399193      -6.24608948
H        1.68510220       1.08749074      -6.06365641
H        3.63116443       1.43599451     -10.41442295
H        2.14165166       2.76584901     -12.16109283
C        0.01021560       4.26760524     -11.14749869
C       -0.79579921       4.95365429     -11.72552361
Br      -2.09905700       6.06293759     -12.66014103
C       -4.02838871      -4.22531965      -6.55391556
C       -4.87902758      -4.12513009      -5.29833206
N       -4.10494285      -4.34513799      -4.09748181
C       -3.38278520      -3.35871447      -3.41772096
C       -3.28948229      -2.00662604      -3.69804545
C       -2.48394467      -1.21725734      -2.87037012
C       -1.79232607      -1.79232607      -1.79232607
C       -1.89264224      -3.15651008      -1.51730402
C       -2.70057323      -3.92974507      -2.34068857
C       -2.96563666      -5.41768899      -2.28455100
O       -1.70611166      -6.05925925      -2.36219468
C       -3.74793082      -5.79638721      -1.02107814
C       -3.98628246      -7.29919282      -0.96377339
O       -3.09809018      -8.05541039      -1.37233244
C       -5.20982904      -7.83119188      -0.37101330
C       -5.53928279      -9.17403493      -0.26042164
C       -6.80510113      -9.38591453       0.36185264
C       -7.38731907      -8.19315934       0.70209519
S       -6.44055420      -6.84877134       0.30223165
C       -3.89067472      -5.60771839      -3.53506240
O       -4.36071177      -6.66814467      -3.92165410
H       -4.64093538      -4.04672566      -7.44299670
H       -3.57731187      -5.21916660      -6.64313772
H       -3.21708195      -3.49040006      -6.54405302
H       -5.66645393      -4.88641603      -5.34387192
H       -5.37720433      -3.15164355      -5.24209497
H       -3.80951334      -1.55545617      -4.53538085
H       -2.39065974      -0.15321847      -3.07571544
H       -1.34087735      -3.61122955      -0.70032748
H       -1.88784868      -7.02411807      -2.35171384
H       -4.69262785      -5.24488268      -1.00863328
H       -3.18687641      -5.53358348      -0.11578945
H       -4.89331025      -9.96893032      -0.61934131
H       -7.24829400     -10.35862955       0.53833006
C       -8.67478147      -8.08921484       1.33867678
C       -9.75303123      -8.00216133       1.87181386
Br     -11.49646989      -7.86140317       2.73385143
C       -6.55710543       4.16937055       4.08114794
C       -5.25146691       4.94712690       4.10389592
N       -4.11197996       4.09084591       4.34473677
C       -3.41615061       3.38625784       3.35681218
C       -3.61934574       3.38698876       1.98781927
C       -2.79272069       2.57919859       1.19965285
C       -1.79232607       1.79232607       1.79232607
C       -1.59474547       1.79821656       3.17349430
C       -2.41598639       2.60905003       3.94597045
C       -2.43463469       2.78527854       5.44796342
O       -2.62223190       1.49830592       6.00702777
C       -1.15387163       3.46724019       5.94428435
C       -1.17376992       3.61593394       7.45954481
O       -1.67695523       2.71244310       8.13643467
C       -0.54558138       4.76933454       8.09711830
C       -0.49756134       5.01469546       9.46148256
C        0.18173003       6.22663281       9.78426022
C        0.62575148       6.85411987       8.65001483
S        0.25447203       6.01108578       7.23048014
C       -3.63974138       3.77168908       5.62202505
O       -4.06219258       4.20315358       6.68516438
H       -7.39756785       4.84353028       3.88955960
H       -6.73153279       3.66875088       5.03933252
H       -6.54909229       3.40201320       3.30042953
H       -5.29798030       5.69133747       4.90742410
H       -5.10846197       5.49551531       3.16696557
H       -4.39707317       3.98132003       1.52195715
H       -2.93854912       2.55906331       0.12198122
H       -0.83932390       1.17328547       3.63982501
H       -2.65959696       1.62396584       6.98011778
H       -1.05456388       4.43927744       5.45230248
H       -0.26773604       2.86849858       5.70001473
H       -0.93984583       4.34740376      10.19433230
H        0.32417332       6.60240223      10.79036459
C        1.33956018       8.10470933       8.66017038
C        1.93737497       9.15207801       8.66867565
Br       2.90399092      10.84558457       8.68242796
C        4.33885369      -3.92827936       6.54049088
C        5.02213092      -4.08809146       5.19226734
N        4.07599970      -4.34225723       4.12930572
C        3.39019875      -3.35502374       3.41399814
C        3.49273747      -1.97909419       3.52232211
C        2.68239549      -1.19204990       2.69712674
C        1.79232607      -1.79232607       1.79232607
C        1.69598319      -3.18047100       1.69000214
C        2.50999271      -3.95244880       2.50856536
C        2.59031444      -5.45869193       2.61887028
O        1.28602135      -5.91494417       2.92660007
C        3.14953070      -6.08181318       1.33405229
C        3.20167364      -7.59929575       1.44827928
O        2.29325558      -8.17890639       2.05367103
C        4.26594971      -8.35350373       0.79258078
C        4.41935782      -9.73174920       0.82263233
C        5.55861103     -10.17985004       0.09070195
C        6.22566109      -9.12217301      -0.46945089
S        5.50294322      -7.62724660      -0.14309594
C        3.64387085      -5.62230963       3.76727503
O        4.03417237      -6.68323339       4.23310477
H        5.07999209      -3.72984621       7.32081944
H        3.79091383      -4.83668273       6.81201963
H        3.62445190      -3.09888089       6.52820223
H        5.71466572      -4.93613956       5.24593660
H        5.61841987      -3.20210881       4.95041418
H        4.16770083      -1.50615019       4.22649933
H        2.74152573      -0.10840355       2.76966437
H        0.99205568      -3.65035037       1.01002833
H        1.35123041      -6.88995302       3.02249716
H        4.14203319      -5.66507231       1.13903830
H        2.50831914      -5.85442225       0.47350795
H        3.73832392     -10.38718660       1.35607137
H        5.85836771     -11.21642817      -0.00620237
C        7.42109316      -9.26390197      -1.25967559
C        8.42226751      -9.38259996      -1.92148878
Br      10.04108177      -9.57452459      -2.99158473
C       -0.00445707       0.01189536      -1.78238275
H       -0.66409135       0.67374010      -2.43557963
H        0.65740317      -0.63156657      -2.45157240
C       -0.90989263      -0.90692880      -0.91072765
C        0.90977584       0.90977584      -0.90977584
C       -0.00465871       1.77757030       0.00794375
H       -0.66225468       2.44313916      -0.64384735
H        0.64322798       2.43503045       0.67728295
C       -1.78241447       0.00034974      -0.00472694
H       -2.45427497      -0.65498947       0.64260836
H       -2.43311707       0.67328779      -0.65473579
C       -0.91132561       0.90220522       0.91563759
C       -0.01476271      -0.02253852       1.78660255
H       -0.67934791      -0.69751639       2.42135241
H        0.63392994       0.61504881       2.47327442
C        0.01484550      -1.77751727      -0.01636693
H        0.67870853      -2.42144646      -0.68295456
H       -0.62264859      -2.45592969       0.64226336
C        1.78714474       0.01002794       0.00389507
H        2.44202412       0.67113390       0.66197326
H        2.45385902      -0.65136977      -0.64189061
C        0.91606151      -0.90478549       0.90901405
