141
Properties=species:S:1:pos:R:3 pbc="F F F"
C        0.00000000       0.00000000       0.00000000
C        5.32632852       4.21545811      -2.53612521
C        3.97587024       4.38406268      -3.21284473
N        3.29865569       3.12053399      -3.39866089
C        2.49116553       2.49598630      -2.44235672
C        2.13535453       2.94616286      -1.18292431
C        1.31864971       2.12571311      -0.39749724
C        0.88242205       0.88242205      -0.88242205
C        1.24613654       0.43697192      -2.15363581
C        2.05115488       1.26224105      -2.92789886
C        2.60626401       1.01843362      -4.31346695
O        3.33763585      -0.19210371      -4.25232138
C        1.48847777       0.98438029      -5.36282603
C        2.05731243       0.71324128      -6.74898288
O        3.00870887      -0.06847894      -6.85589100
C        1.44147217       1.31062984      -7.93022013
C        1.86548730       1.13885361      -9.23968637
C        1.06595341       1.85293562     -10.18056191
C        0.06271733       2.53853816      -9.54741565
Br      -1.18879774       3.60378004     -10.44492633
S        0.06327125       2.32545278      -7.86865779
C        3.46800775       2.30989869      -4.52583700
O        4.13813607       2.56702422      -5.51563817
H        5.80886692       5.18865923      -2.40341952
H        5.98927155       3.58386983      -3.13676273
H        5.22200867       3.74814992      -1.55166436
H        4.12923590       4.83986235      -4.19793155
H        3.33595969       5.06420853      -2.64106256
H        2.47719901       3.89879131      -0.79464797
H        1.03172365       2.45635113       0.59819319
H        0.93237997      -0.53400446      -2.52434680
H        3.71641608      -0.33007852      -5.14763095
H        0.94615837       1.93408790      -5.33618546
H        0.77519817       0.17758671      -5.15375239
H        2.72126040       0.52609049      -9.50451892
H        1.23174763       1.85594498     -11.25118881
C       -2.79273661      -3.73012492      -5.55505032
C       -3.78439487      -3.30308086      -4.48530192
N       -3.23599199      -3.42819226      -3.15366633
C       -2.46392470      -2.45519444      -2.51038942
C       -2.10851898      -1.19557104      -2.96035169
C       -1.30880894      -0.40213487      -2.13091624
C       -0.88242205      -0.88242205      -0.88242205
C       -1.24592798      -2.15373410      -0.43708219
C       -2.04590290      -2.93037395      -1.26501794
C       -2.55966459      -4.33542774      -1.04307224
O       -1.42610509      -5.15316384      -0.81858458
C       -3.56528778      -4.38409283       0.11369650
C       -4.05561702      -5.80724673       0.34332715
O       -3.25649373      -6.73911803       0.19949083
C       -5.42209845      -6.05428005       0.79405635
C       -5.98232389      -7.29955478       1.03785139
C       -7.34107607      -7.22330009       1.46492522
C       -7.75941531      -5.92021148       1.53095564
Br      -9.48823391      -5.41318754       2.04151282
S       -6.55547744      -4.80909154       1.10718716
C       -3.31642901      -4.59727115      -2.39004328
O       -3.89636791      -5.62957566      -2.69485489
H       -3.23463267      -3.61657264      -6.54974035
H       -2.50496179      -4.77880494      -5.42613739
H       -1.88036539      -3.12647248      -5.51498508
H       -4.67277798      -3.94177780      -4.55247403
H       -4.11683178      -2.27306287      -4.65133613
H       -2.42220648      -0.82056417      -3.92786764
H       -1.01190518       0.58885339      -2.46682979
H       -0.89897320      -2.54009032       0.51634122
H       -1.76519352      -6.06717887      -0.70159612
H       -4.39732993      -3.70976022      -0.10934159
H       -3.10262836      -4.05691001       1.05300110
H       -5.43303846      -8.22654586       0.90771451
H       -7.96016955      -8.08030174       1.70158987
C       -5.42850358       4.03033416       2.61907411
C       -4.05228502       4.33033510       3.19015754
N       -3.28015583       3.12811880       3.40957595
C       -2.49460409       2.49264226       2.44226220
C       -2.25125034       2.87778566       1.13540571
C       -1.43229737       2.05948170       0.35008099
C       -0.88242205       0.88242205       0.88242205
C       -1.13321587       0.50228294       2.20124546
C       -1.94157283       1.32536992       2.97435205
C       -2.38936841       1.14158373       4.40721243
O       -3.03903307      -0.11444833       4.47326878
C       -1.20726399       1.25035314       5.37806698
C       -1.66682696       1.03851989       6.81418974
O       -2.55404324       0.20685678       7.03522091
C       -1.01906758       1.75297166       7.91028290
C       -1.34609410       1.64407556       9.25385762
C       -0.53870345       2.47005370      10.09069379
C        0.37313593       3.17349374       9.34831333
Br       1.60386687       4.37495172      10.08882378
S        0.28011275       2.84700717       7.69048739
C       -3.32175019       2.38696513       4.59502812
O       -3.94338895       2.66765456       5.60975495
H       -5.98365416       4.95950967       2.45778183
H       -6.00728181       3.40014496       3.30247735
H       -5.35555761       3.50468531       1.66158003
H       -4.17323965       4.84144273       4.15234743
H       -3.49790602       5.00936707       2.53395770
H       -2.68120572       3.77804395       0.71138861
H       -1.23258288       2.33917402      -0.68187533
H       -0.73109618      -0.41922914       2.61085527
H       -3.34971530      -0.21500462       5.39925783
H       -0.73366414       2.22866795       5.25409964
H       -0.45548710       0.47829476       5.17275541
H       -2.13954303       0.99747884       9.61484794
H       -0.63575422       2.53537589      11.16775131
C        2.57231279      -4.12958452       5.37601455
C        3.61951429      -3.41903045       4.53423292
N        3.27591114      -3.41182077       3.13011866
C        2.45650563      -2.46241076       2.51059217
C        1.85844534      -1.34314254       3.06285382
C        1.06358595      -0.54507582       2.23319829
C        0.88242205      -0.88242205       0.88242205
C        1.48958248      -2.01277924       0.33438254
C        2.28235360      -2.79412848       1.16481272
C        3.02767175      -4.06964260       0.84085022
O        2.07044850      -4.98550945       0.34189557
C        4.17204028      -3.81013060      -0.14648678
C        4.89815180      -5.10528787      -0.48390308
O        4.23754385      -6.14489342      -0.58631634
C        6.33347200      -5.09973426      -0.75088411
C        7.10297217      -6.20930463      -1.06824952
C        8.47863950      -5.89161996      -1.27080853
C        8.69974268      -4.55007732      -1.10114885
Br      10.38366217      -3.74916070      -1.27291424
S        7.29630040      -3.68366442      -0.72258300
C        3.63201881      -4.43094105       2.24078358
O        4.31658761      -5.41238703       2.49182382
H        2.85753068      -4.11104745       6.43236754
H        2.46616115      -5.17521625       5.06852672
H        1.59225873      -3.65181896       5.27774526
H        4.57781941      -3.93838345       4.65082695
H        3.76737854      -2.39144584       4.88240640
H        1.98201209      -1.08116057       4.10746563
H        0.57850165       0.33596128       2.64734121
H        1.33329375      -2.29238015      -0.70295160
H        2.55647605      -5.81876627       0.15872620
H        4.85577881      -3.07409923       0.28655369
H        3.79244399      -3.40798952      -1.09389623
H        6.68819128      -7.20927317      -1.14559464
H        9.24605617      -6.61415121      -1.52132596
