162
Properties=species:S:1:pos:R:3 pbc="F F F"
C        6.23623255       5.12536214      -3.44602924
C        4.88577427       5.29396671      -4.12274875
N        4.20855972       4.03043802      -4.30856492
C        3.40106956       3.40589033      -3.35226074
C        3.04525855       3.85606688      -2.09282834
C        2.22855373       3.03561713      -1.30740127
C        1.79232607       1.79232607      -1.79232607
C        2.15604056       1.34687594      -3.06353983
C        2.96105891       2.17214507      -3.83780289
C        3.51616803       1.92833764      -5.22337098
O        4.24753987       0.71780031      -5.16222540
C        2.39838180       1.89428432      -6.27273006
C        2.96721645       1.62314531      -7.65888691
O        3.91861289       0.84142508      -7.76579503
C        2.35137619       2.22053387      -8.84012416
C        2.77539132       2.04875764     -10.14959039
C        1.97585744       2.76283964     -11.09046594
C        0.97262135       3.44844219     -10.45731968
Br      -0.27889372       4.51368406     -11.35483036
S        0.97317527       3.23535680      -8.77856181
C        4.37791178       3.21980271      -5.43574102
O        5.04804009       3.47692825      -6.42554219
H        6.71877094       6.09856325      -3.31332354
H        6.89917558       4.49377386      -4.04666676
H        6.13191269       4.65805394      -2.46156839
H        5.03913993       5.74976637      -5.10783558
H        4.24586372       5.97411255      -3.55096659
H        3.38710303       4.80869533      -1.70455199
H        1.94162767       3.36625515      -0.31171083
H        1.84228399       0.37589956      -3.43425082
H        4.62632011       0.57982551      -6.05753497
H        1.85606239       2.84399193      -6.24608948
H        1.68510220       1.08749074      -6.06365641
H        3.63116443       1.43599451     -10.41442295
H        2.14165166       2.76584901     -12.16109283
C       -3.65815999      -4.70938710      -6.44007683
C       -4.66480238      -4.23103375      -5.40665360
N       -4.15279579      -4.33589146      -4.05887541
C       -3.37246020      -3.36628046      -3.42047996
C       -2.97426990      -2.12761559      -3.89226828
C       -2.17545281      -1.33342283      -3.06269649
C       -1.79232607      -1.79232607      -1.79232607
C       -2.19879333      -3.04258928      -1.32507373
C       -2.99748689      -3.81995173      -2.15356825
C       -3.55198558      -5.20581896      -1.91007211
O       -2.44538508      -6.04535277      -1.63682773
C       -4.58677859      -5.20032878      -0.77828881
C       -5.11850759      -6.60466887      -0.52607221
O       -4.33992819      -7.55933381      -0.62657100
C       -6.50152006      -6.80638896      -0.10412520
C       -7.09894723      -8.03087641       0.15608429
C       -8.46546512      -7.91030062       0.54660273
C       -8.85217769      -6.59602436       0.56981883
Br     -10.57968456      -6.03369605       1.02375992
S       -7.61039329      -5.52606157       0.14936098
C       -4.28164271      -5.48291669      -3.26889611
O       -4.87983036      -6.50797164      -3.56270854
H       -4.07234009      -4.61017969      -7.44813796
H       -3.40030247      -5.76125344      -6.27806028
H       -2.73206396      -4.12762920      -6.39184187
H       -5.56714326      -4.84909299      -5.48050563
H       -4.96684987      -3.19765476      -5.60643823
H       -3.25437241      -1.76959526      -4.87638268
H       -1.84534645      -0.35889245      -3.41535475
H       -1.88538371      -3.41313025      -0.35392042
H       -2.81029423      -6.94745972      -1.50592663
H       -5.39571732      -4.51151809      -1.03890839
H       -4.13932051      -4.86099204       0.16406320
H       -6.57026411      -8.97414746       0.06282968
H       -9.11171594      -8.74548472       0.78860715
C       -6.55362554       4.02502233       4.22897605
C       -5.29942120       4.87732973       4.12573880
N       -4.09713454       4.10530143       4.34512668
C       -3.41775569       3.38269983       3.35876511
C       -3.69989941       3.28703407       2.00722030
C       -2.87220075       2.48155187       1.21781951
C       -1.79232607       1.79232607       1.79232607
C       -1.51547744       1.89501492       3.15596397
C       -2.33891213       2.70287333       3.92922141
C       -2.28100714       2.97017182       5.41669768
O       -2.35589933       1.71146616       6.06020011
C       -1.01812210       3.75483947       5.79243460
C       -0.95898976       3.99544944       7.29480947
O       -1.36516853       3.10776326       8.05290122
C       -0.36723334       5.22062080       7.82418008
C       -0.25517740       5.55217811       9.16638384
C        0.36556910       6.81920030       9.37553181
C        0.70324338       7.40018193       8.18144466
Br       1.52843448       9.07539922       8.04265596
S        0.30280776       6.45089430       6.83900734
C       -3.53258056       3.89367506       5.60719989
O       -3.91831883       4.36468760       6.66750411
H       -7.44384997       4.63602365       4.05078412
H       -6.64075743       3.57525647       5.22360229
H       -6.54365088       3.21266741       3.49521674
H       -5.34500041       5.66579089       4.88595058
H       -5.24531308       5.37417720       3.15145258
H       -4.53863835       3.80520011       1.55651190
H       -3.07894901       2.38642958       0.15421507
H       -0.69704624       1.34509082       3.61029732
H       -2.34428661       1.89461501       7.02477897
H       -1.00784251       4.69875397       5.23954732
H       -0.11240291       3.19471462       5.52913182
H       -0.61201169       4.90683894       9.96273125
H        0.54281082       7.26405584      10.34734848
C        4.09175996      -4.15841517       6.55744879
C        4.91034270      -4.11458721       5.27755982
N        4.09839063      -4.34516268       4.10400934
C        3.38437015      -3.35780823       3.41704225
C        3.33448892      -1.99674707       3.66291778
C        2.52792276      -1.20795197       2.83569740
C        1.79232607      -1.79232607       1.79232607
C        1.84903974      -3.16552438       1.55189221
C        2.65830755      -3.93837578       2.37432354
C        2.88232202      -5.43393230       2.35162233
O        1.60884999      -6.03878852       2.47992709
C        3.61973539      -5.86700087       1.07865992
C        3.81663269      -7.37671395       1.05590203
O        2.92018145      -8.09747029       1.50818126
C        5.00914124      -7.95722435       0.44566864
C        5.29985692      -9.31097217       0.36291026
C        6.54226790      -9.57352111      -0.28662600
C        7.14635963      -8.40642644      -0.67440285
Br       8.80047176      -8.33869841      -1.54954947
S        6.24667186      -7.02672557      -0.28630354
C        3.83562802      -5.61588570       3.58194179
O        4.28779212      -6.67809378       3.98462463
H        4.73272957      -3.97307921       7.42484895
H        3.61715723      -5.13694123       6.68551773
H        3.30019599      -3.40225430       6.54908473
H        5.67831519      -4.89550390       5.32292279
H        5.43236895      -3.15681389       5.18176001
H        3.88880991      -1.53788681       4.47365364
H        2.46840888      -0.13671604       3.01446873
H        1.26346670      -3.62653180       0.76243587
H        1.76466555      -7.00816613       2.49084891
H        4.57799507      -5.34187342       1.02627531
H        3.04144943      -5.61308283       0.18171708
H        4.64308109     -10.07826794       0.76023286
H        6.95463641     -10.56223693      -0.44827985
C       -0.00445707       0.01189536      -1.78238275
H       -0.66409135       0.67374010      -2.43557963
H        0.65740317      -0.63156657      -2.45157240
C       -0.90989263      -0.90692880      -0.91072765
C        0.90977584       0.90977584      -0.90977584
C       -0.00465871       1.77757030       0.00794375
H       -0.66225468       2.44313916      -0.64384735
H        0.64322798       2.43503045       0.67728295
C       -1.78241447       0.00034974      -0.00472694
H       -2.45427497      -0.65498947       0.64260836
H       -2.43311707       0.67328779      -0.65473579
C       -0.91132561       0.90220522       0.91563759
C       -0.01476271      -0.02253852       1.78660255
H       -0.67934791      -0.69751639       2.42135241
H        0.63392994       0.61504881       2.47327442
C        0.01484550      -1.77751727      -0.01636693
H        0.67870853      -2.42144646      -0.68295456
H       -0.62264859      -2.45592969       0.64226336
C        1.78714474       0.01002794       0.00389507
H        2.44202412       0.67113390       0.66197326
H        2.45385902      -0.65136977      -0.64189061
C        0.91606151      -0.90478549       0.90901405
