165
Properties=species:S:1:pos:R:3 pbc="F F F"
C        0.00000000       0.00000000       0.00000000
C        0.88224187       0.88224187      -0.88224187
C        1.39880572       0.37567956      -2.07229771
C        2.21276399       1.18488905      -2.87241459
C        2.52149726       2.50353726      -2.49382073
C        1.97852508       2.99234861      -1.29920818
C        1.16393014       2.18775184      -0.49405376
C        3.44353275       3.29455200      -3.38573237
O        3.83630277       2.74576150      -4.42746536
C        3.97179882       4.68874154      -2.95867918
H        4.90746350       4.79410917      -3.52923031
O        4.36741374       4.67885068      -1.58198463
C        4.67679215       5.90630912      -1.07125856
C        5.32811743       5.90231784       0.16471368
C        5.69059556       7.10391096       0.77022167
C        5.40015387       8.30493710       0.12947511
Br       5.89859004       9.94048834       0.93893449
C        4.74258366       8.31329518      -1.10154182
C        4.34971499       7.10666151      -1.70579784
C        3.61971331       7.09250343      -3.03390084
H        4.32903844       7.42143458      -3.80378038
C        2.35505303       7.95227329      -3.07709452
C        1.25666827       6.96983349      -2.78516385
N        1.68851143       5.70031139      -2.91860911
N        3.08052078       5.77668787      -3.38208446
C       -0.10830098       7.19758974      -2.43401952
C       -1.11701046       6.27776806      -2.18445786
C       -2.37125447       6.87420279      -1.87166989
C       -2.29686134       8.24616558      -1.88675648
S       -0.72795405       8.79992351      -2.27359234
H        1.17673974      -0.63818501      -2.39062097
H        2.60898117       0.78186810      -3.80206443
H        2.15286102       4.01734724      -0.98081859
H        0.75512796       2.60426812       0.42157376
H        5.54870495       4.95602245       0.64929437
H        6.19340401       7.08948019       1.73162746
H        4.51754710       9.25641294      -1.59199797
H        2.35894176       8.77914832      -2.36146004
H        2.20395400       8.36322240      -4.08329235
H       -0.93882183       5.21032751      -2.23812688
H       -3.27345284       6.32000841      -1.65323639
H       -3.08722651       8.95529997      -1.69176085
C       -0.88224187      -0.88224187      -0.88224187
C       -1.42201898      -2.05805693      -0.36670708
C       -2.22244050      -2.86647828      -1.18114885
C       -2.49014113      -2.51305697      -2.51565714
C       -1.94591433      -1.31921411      -3.00495344
C       -1.14397682      -0.50629465      -2.19546427
C       -3.32156843      -3.46055458      -3.34169410
O       -3.75915295      -4.47479495      -2.77558173
C       -3.52033733      -3.23564010      -4.86324210
H       -3.74170849      -4.24439337      -5.24470111
O       -2.28527304      -2.85932859      -5.48364741
C       -2.40031476      -2.46782348      -6.78622159
C       -1.20192126      -2.36660988      -7.49719046
C       -1.21113306      -1.97782240      -8.83532939
C       -2.42519312      -1.69559279      -9.45482994
Br      -2.44800734      -1.17791622     -11.27422035
C       -3.62375536      -1.78791645      -8.74574884
C       -3.62042911      -2.15319744      -7.38854778
C       -4.90816977      -2.24346334      -6.59448447
H       -5.47345777      -3.10170625      -6.97908939
C       -5.77161177      -0.98111672      -6.63169235
C       -5.38049180      -0.25529586      -5.37587795
N       -4.71035104      -1.06478213      -4.53229875
N       -4.68908266      -2.39526987      -5.15494057
C       -5.63778135       1.09106579      -4.97659272
C       -5.28458582       1.74276972      -3.80339936
C       -5.72510044       3.09525195      -3.74476971
C       -6.40923584       3.45422778      -4.88105266
S       -6.51322509       2.16869943      -6.00103614
H       -1.23333594      -2.35590055       0.66006078
H       -2.64267703      -3.78139282      -0.76884386
H       -2.15502109      -0.97949344      -4.01651233
H       -0.74576588       0.41583035      -2.60788678
H       -0.26421977      -2.59261202      -6.99860122
H       -0.27440914      -1.89953559      -9.37731200
H       -4.56595455      -1.56230114      -9.23770231
H       -5.61386666      -0.36464076      -7.52104270
H       -6.83593709      -1.24168052      -6.57285114
H       -4.73152272       1.24049510      -3.01860494
H       -5.54908129       3.75917919      -2.90988985
H       -6.85738931       4.40902524      -5.11147024
C       -0.88224187       0.88224187       0.88224187
C       -1.44144371       2.04576568       0.35957359
C       -2.24179745       2.85434816       1.17392203
C       -2.49011443       2.51334909       2.51539173
C       -1.92655498       1.33154723       3.01197966
C       -1.12457680       0.51854187       2.20261707
C       -3.32294599       3.46076899       3.34010213
O       -3.77867813       4.46332302       2.76752848
C       -3.50168803       3.25121154       4.86631997
H       -3.73033647       4.26171243       5.23875408
O       -2.25533988       2.89624919       5.47665997
C       -2.35094279       2.51854762       6.78486942
C       -1.14340712       2.43927503       7.48303944
C       -1.13281886       2.06591230       8.82555369
C       -2.33636969       1.77700319       9.46224297
Br      -2.33238803       1.28017964      11.28757623
C       -3.54394966       1.84740692       8.76606408
C       -3.56036876       2.19697848       7.40482710
C       -4.85806331       2.26332195       6.62473232
H       -5.42880612       3.11943609       7.00601120
C       -5.70636368       0.99169925       6.68635791
C       -5.32125991       0.25592050       5.43448520
N       -4.67021770       1.06320482       4.57400940
N       -4.65722237       2.40096203       5.18110871
C       -5.56750749      -1.09782380       5.05362459
C       -5.22023571      -1.75897339       3.88395315
C       -5.64571792      -3.11699217       3.84589246
C       -6.31261704      -3.47059990       4.99404358
S       -6.41865560      -2.17347554       6.10038175
H       -1.26797197       2.33385057      -0.67264684
H       -2.67727618       3.75956700       0.75607052
H       -2.12013725       1.00118137       4.02970823
H       -0.71103600      -0.39413698       2.62092330
H       -0.21414529       2.67020257       6.97108516
H       -0.18911572       2.00461656       9.35752445
H       -4.47778895       1.61673798       9.27143108
H       -5.53133875       0.38739605       7.58081532
H       -6.77423506       1.23937738       6.63685630
H       -4.68202986      -1.25951889       3.08712159
H       -5.47158907      -3.78847611       3.01667899
H       -6.74703197      -4.42773037       5.24053271
C        0.88224187      -0.88224187       0.88224187
C        1.66844593      -0.30306345       1.87527361
C        2.48068620      -1.11445284       2.67492859
C        2.51931770      -2.50812184       2.49141571
C        1.70924539      -3.06607691       1.49475957
C        0.89481954      -2.25981305       0.69110315
C        3.45551674      -3.30709985       3.36120053
O        4.10153463      -2.68715629       4.22083871
C        3.68813867      -4.81990477       3.11117609
H        4.68307004      -5.00157970       3.54615323
O        3.83372948      -5.08373422       1.71078535
C        3.86339117      -6.40835913       1.38260953
C        4.28162488      -6.70180863       0.08228809
C        4.35021878      -8.02461120      -0.35054512
C        4.00150266      -9.04772324       0.52638996
Br       4.10236078     -10.84695758      -0.04917447
C        3.57567557      -8.75816620       1.82357889
C        3.47803034      -7.42532450       2.25881949
C        3.00203509      -7.08677369       3.65730879
H        3.77838565      -7.41686839       4.35899937
C        1.65112810      -7.69587198       4.03742076
C        0.67668385      -6.59071024       3.74427152
N        1.30868402      -5.41083269       3.58791522
N        2.73334897      -5.66003952       3.84590462
C       -0.74711791      -6.62559325       3.64483295
C       -1.63615242      -5.59078871       3.39057917
C       -3.00015919      -5.99820506       3.37657234
C       -3.12862689      -7.34435553       3.62033209
S       -1.61601001      -8.10053879       3.86103303
H        1.65841034       0.76984293       2.04060828
H        3.08881988      -0.65362046       3.45047337
H        1.67116080      -4.14147684       1.33838921
H        0.27488874      -2.72949820      -0.06656462
H        4.55189430      -5.89124193      -0.58770321
H        4.67349825      -8.24117814      -1.36341966
H        3.30257542      -9.56398982       2.49939276
H        1.40700931      -8.60752968       3.48501113
H        1.61919662      -7.92015631       5.11111581
H       -1.29497973      -4.57504386       3.22956844
H       -3.83431287      -5.33329877       3.20080604
H       -4.03723048      -7.92517693       3.67188787
