173
Properties=species:S:1:pos:R:3 pbc="F F F"
C        0.00000000       0.00000000       0.00000000
C        0.88224187       0.88224187      -0.88224187
C        1.39880572       0.37567956      -2.07229771
C        2.21276399       1.18488905      -2.87241459
C        2.52149726       2.50353726      -2.49382073
C        1.97852508       2.99234861      -1.29920818
C        1.16393014       2.18775184      -0.49405376
C        3.44353275       3.29455200      -3.38573237
O        3.83630277       2.74576150      -4.42746536
C        3.97179882       4.68874154      -2.95867918
H        4.90746350       4.79410917      -3.52923031
O        4.36741374       4.67885068      -1.58198463
C        4.67679215       5.90630912      -1.07125856
C        5.32811743       5.90231784       0.16471368
C        5.69059556       7.10391096       0.77022167
C        5.40015387       8.30493710       0.12947511
C        4.74258366       8.31329518      -1.10154182
C        4.34971499       7.10666151      -1.70579784
C        3.61971331       7.09250343      -3.03390084
H        4.32903844       7.42143458      -3.80378038
C        2.35505303       7.95227329      -3.07709452
C        1.25666827       6.96983349      -2.78516385
N        1.68851143       5.70031139      -2.91860911
N        3.08052078       5.77668787      -3.38208446
C       -0.10830098       7.19758974      -2.43401952
C       -1.11701046       6.27776806      -2.18445786
C       -2.37125447       6.87420279      -1.87166989
C       -2.29686134       8.24616558      -1.88675648
S       -0.72795405       8.79992351      -2.27359234
H        1.17673974      -0.63818501      -2.39062097
H        2.60898117       0.78186810      -3.80206443
H        2.15286102       4.01734724      -0.98081859
H        0.75512796       2.60426812       0.42157376
H        5.54870495       4.95602245       0.64929437
H        6.19340401       7.08948019       1.73162746
H        4.51754710       9.25641294      -1.59199797
H        2.35894176       8.77914832      -2.36146004
H        2.20395400       8.36322240      -4.08329235
H       -0.93882183       5.21032751      -2.23812688
H       -3.27345284       6.32000841      -1.65323639
H       -3.08722651       8.95529997      -1.69176085
C        5.77956489       9.54992333       0.74563787
C        6.09732163      10.59259930       1.26167419
Br       6.61110739      12.27851815       2.09606127
C       -0.88224187      -0.88224187      -0.88224187
C       -1.32555958      -2.11408064      -0.40714277
C       -2.12635745      -2.92170481      -1.22200538
C       -2.49036624      -2.51157927      -2.51690973
C       -2.04207699      -1.26295529      -2.96504960
C       -1.24030396      -0.45048667      -2.15494512
C       -3.31509284      -3.45900032      -3.34972395
O       -3.66249151      -4.52661520      -2.82042292
C       -3.61421361      -3.16266203      -4.84234390
H       -3.80158257      -4.16007503      -5.26914538
O       -2.43995902      -2.68149236      -5.50679766
C       -2.65203542      -2.22627178      -6.77605263
C       -1.50447087      -2.01646803      -7.54478269
C       -1.61297935      -1.55583587      -8.85546964
C       -2.87474564      -1.31113247      -9.38973775
C       -4.02307749      -1.51198082      -8.62236235
C       -3.92061891      -1.95057374      -7.29098169
C       -5.15300633      -2.15924084      -6.43387040
H       -5.69165150      -3.02648399      -6.83611792
C       -6.08530002      -0.94919218      -6.34992864
C       -5.66223715      -0.27202722      -5.07740124
N       -4.90057881      -1.08629995      -4.32055316
N       -4.84243136      -2.37701062      -5.01985113
C       -5.96952873       1.03305065      -4.58683021
C       -5.58500194       1.63867447      -3.39888800
C       -6.09510609       2.95792680      -3.23743891
C       -6.86297180       3.33842847      -4.31151739
S       -6.96111836       2.11260386      -5.49704732
H       -1.06129531      -2.45647572       0.58859533
H       -2.47088706      -3.88083958      -0.84118706
H       -2.32811783      -0.88084415      -3.94206488
H       -0.91813272       0.51455908      -2.53424868
H       -0.52831047      -2.21456671      -7.11255584
H       -0.71513981      -1.39342331      -9.44269362
H       -5.00331338      -1.31489481      -9.04774981
H       -6.01377946      -0.27657458      -7.20919608
H       -7.12843909      -1.27414234      -6.24788731
H       -4.96037281       1.12704173      -2.67630149
H       -5.90756203       3.58403158      -2.37626150
H       -7.37564174       4.27673452      -4.46092709
C       -2.99439711      -0.84314835     -10.74630488
C       -3.09460523      -0.45121165     -11.88242985
Br      -3.25663327       0.18251684     -13.71944785
C       -0.88224187       0.88224187       0.88224187
C       -1.43378444       2.05065316       0.36234540
C       -2.23416457       2.85917208       1.17673098
C       -2.49012420       2.51323413       2.51549692
C       -1.93418825       1.32664346       3.00925016
C       -1.13222641       0.51367178       2.19983755
C       -3.32239983       3.46068845       3.34072884
O       -3.77097682       4.46788854       2.77066427
C       -3.50903119       3.24503610       4.86515224
H       -3.73479270       4.25486966       5.24114061
O       -2.26709328       2.88164620       5.47950956
C       -2.37035689       2.49846233       6.78554061
C       -1.16638163       2.41053530       7.48880466
C       -1.16359269       2.03105167       8.82964050
C       -2.37132399       1.74474070       9.45955116
C       -3.57539277       1.82379024       8.75823764
C       -3.58403501       2.17959451       7.39854481
C       -4.87785311       2.25537394       6.61289052
H       -5.44644143       3.11234031       6.99547167
C       -5.73217573       0.98735789       6.66488722
C       -5.34471664       0.25551207       5.41143690
N       -4.68611661       1.06371489       4.55760042
N       -4.66982481       2.39863578       5.17083252
C       -5.59535762      -1.09535900       5.02330967
C       -5.24576573      -1.75277737       3.85222711
C       -5.67721665      -3.10865996       3.80606151
C       -6.35092735      -3.46442630       4.94955968
S       -6.45612243      -2.17185698       6.06129636
H       -1.25431516       2.34261792      -0.66775738
H       -2.66363336       3.76824609       0.76103425
H       -2.13389320       0.99255573       4.02457793
H       -0.72473096      -0.40276433       2.61585570
H       -0.23376379       2.63954889       6.98212033
H       -0.22260693       1.96305422       9.36559557
H       -4.51255684       1.59508590       9.25831527
H       -5.56396093       0.37821970       7.55736949
H       -6.79867812       1.24011365       6.61167697
H       -4.70168350      -1.25217290       3.06012197
H       -5.50235993      -3.77716668       2.97459870
H       -6.79078976      -4.42067697       5.18972151
C       -2.37632768       1.36025822      10.84726445
C       -2.38051826       1.03825414      12.00947434
Br      -2.38729408       0.51760077      13.88866942
C        0.88224187      -0.88224187       0.88224187
C        1.57027143      -0.32118615       1.95532541
C        2.38320316      -1.13178665       2.75507782
C        2.52026477      -2.50640768       2.49218280
C        1.80733506      -3.04750422       1.41524259
C        0.99278538      -2.24188763       0.61106273
C        3.45175918      -3.30171901       3.37033892
O        4.00545761      -2.69995385       4.30411817
C        3.79352091      -4.77936104       3.04633758
H        4.77041661      -4.92883613       3.53155024
O        4.03806912      -4.94545111       1.64472881
C        4.17041262      -6.24271278       1.24123443
C        4.68252463      -6.42847067      -0.04527371
C        4.85973536      -7.71502551      -0.55047601
C        4.52480232      -8.81014462       0.24066892
C        4.00555573      -8.62851698       1.52334795
C        3.79862798      -7.33383179       2.02971456
C        3.22032080      -7.11273874       3.41305802
H        3.97300558      -7.43980346       4.14144437
C        1.89029838      -7.82345021       3.67067225
C        0.86729738      -6.76165497       3.38271325
N        1.43193359      -5.53893732       3.33656102
N        2.85168299      -5.71911442       3.66849570
C       -0.54309829      -6.87443275       3.19197383
C       -1.47888343      -5.88012361       2.94397528
C       -2.81131934      -6.36587869       2.82005886
C       -2.86901551      -7.72994113       2.97513510
S       -1.32871281      -8.40890435       3.26537027
H        1.48296225       0.73670858       2.18292203
H        2.91415077      -0.68548780       3.59327513
H        1.84633030      -4.11129588       1.19340068
H        0.44958365      -2.69882958      -0.21059091
H        4.94043073      -5.56276994      -0.64776766
H        5.25539385      -7.84789990      -1.55203701
H        3.74418630      -9.49002638       2.13174532
H        1.73716863      -8.71138341       3.05099808
H        1.80904327      -8.11635964       4.72506583
H       -1.19338184      -4.83784778       2.86516663
H       -3.67379526      -5.74177548       2.63181174
H       -3.74071894      -8.36562097       2.93493228
C        4.71341919     -10.14248721      -0.27205605
C        4.87138582     -11.25832413      -0.70146322
Br       5.12680450     -13.06253806      -1.39577828
