158
Properties=species:S:1:pos:R:3 pbc="F F F"
N        9.84814905       2.02135061      -4.47257225
C        9.05957776       1.97653203      -5.30981214
C        8.09630965       1.92178452      -6.33253069
C        6.84832995       2.42700419      -6.18301933
C        6.40024506       3.16732530      -4.94670271
O        7.05957264       3.37920560      -3.95038665
N        5.09328606       3.56483526      -5.20130211
C        4.28891428       4.30616457      -4.25327787
C        3.40931674       3.41717647      -3.40339800
C        3.98187271       2.50078325      -2.50657170
C        3.17698840       1.68799323      -1.70612021
C        1.79153875       1.79153875      -1.79153875
C        1.20452815       2.69960391      -2.67011183
C        2.01118483       3.51047453      -3.47335344
C        4.65885546       3.12850391      -6.46132595
C        3.41367480       3.31979595      -7.04380087
C        3.18882411       2.78846619      -8.31485957
C        4.20315981       2.08005215      -8.96795577
C        5.45571091       1.89166310      -8.37289158
C        5.68693093       2.42899646      -7.11142528
C        8.42066100       1.34631683      -7.57368339
N        8.68620035       0.87521498      -8.58974684
H        3.69502701       5.05166439      -4.79537481
H        4.95264575       4.87104932      -3.58715701
H        5.06429171       2.42110281      -2.41617539
H        3.64197439       0.98706720      -1.01779445
H        0.12288988       2.78755154      -2.73194981
H        1.53536247       4.22082670      -4.14566717
H        2.61861741       3.85965549      -6.54309356
H        2.21977126       2.92406464      -8.79066628
H        6.20197171       1.32543807      -8.91698958
C        3.95150897       1.53173877     -10.27548179
C        3.74075138       1.07252632     -11.37053483
Br       3.39997420       0.33001862     -13.14114298
N       -1.96597282      -9.82192871      -4.55417038
C       -2.89416651      -9.49406045      -3.95769498
C       -4.02798839      -9.09355760      -3.22907888
C       -4.45390685      -7.80803028      -3.19641634
C       -3.81006224      -6.70456892      -3.99964192
O       -2.84850035      -6.80829368      -4.73237087
N       -4.55891227      -5.56396285      -3.73654830
C       -4.26507293      -4.26945816      -4.31382563
C       -3.40740960      -3.40469231      -3.41778930
C       -2.09272948      -3.78866693      -3.10783125
C       -1.28844373      -2.98780922      -2.29484889
C       -1.79153875      -1.79153875      -1.79153875
C       -3.09098501      -1.38983974      -2.09341914
C       -3.89640934      -2.19391771      -2.90468575
C       -5.59439459      -5.82640837      -2.82788236
C       -6.52584619      -4.93167935      -2.31974609
C       -7.47341389      -5.40705881      -1.41167717
C       -7.46623929      -6.75341821      -1.03151023
C       -6.52299827      -7.64856109      -1.54870622
C       -5.58444705      -7.18097749      -2.46192812
C       -4.77828739     -10.04563457      -2.51673926
N       -5.39251370     -10.82505641      -1.93359205
H       -5.20758698      -3.76885343      -4.56562580
H       -3.73394346      -4.41424750      -5.26266112
H       -1.67963718      -4.71322167      -3.50871105
H       -0.27327963      -3.30400939      -2.06954702
H       -3.48246995      -0.45192068      -1.70800060
H       -4.90457187      -1.85910296      -3.13818152
H       -6.53486056      -3.88527674      -2.60122917
H       -8.21238327      -4.72369076      -0.99842816
H       -6.55441904      -8.67779595      -1.21218437
C       -8.44595372      -7.22525982      -0.08751598
C       -9.26646455      -7.62042717       0.70307919
Br     -10.59316118      -8.25937935       1.98140473
N       -0.83860500       7.44044658       8.06302034
C       -1.37761209       7.84036291       7.12794692
C       -2.03602859       8.32887507       5.98572120
C       -2.76150882       7.52927741       5.16756724
C       -3.00303155       6.06579406       5.44544746
O       -2.57720280       5.42694421       6.38501788
N       -3.82339047       5.61962411       4.41640884
C       -4.28869434       4.25335032       4.30631206
C       -3.41357924       3.40199388       3.41431811
C       -2.08329259       3.13199149       3.77394357
C       -1.27347795       2.33316412       2.96445976
C       -1.79153875       1.79153875       1.79153875
C       -3.11103791       2.04207989       1.42112609
C       -3.91987767       2.84460238       2.23053277
C       -4.10376367       6.64418123       3.50074043
C       -4.86774124       6.56481032       2.34472006
C       -5.01159035       7.71441397       1.56614555
C       -4.39038569       8.90628085       1.95450119
C       -3.62149408       8.97710917       3.12166233
C       -3.48506228       7.83675271       3.90553768
C       -1.97352563       9.69746318       5.66967241
N       -1.92235648      10.81785499       5.41095069
H       -5.32795324       4.25746525       3.95664771
H       -4.30506581       3.80047923       5.30530705
H       -1.66958751       3.53444013       4.69754226
H       -0.24730469       2.13604783       3.26348353
H       -3.51956248       1.61303664       0.50979210
H       -4.95046654       3.02068242       1.93070739
H       -5.34612741       5.64461225       2.03062679
H       -5.60423913       7.67577353       0.65448952
H       -3.15259631       9.92149802       3.37030504
C       -4.54263432      10.08075653       1.13533867
C       -4.67014255      11.06437991       0.44929006
Br      -4.87631258      12.65481573      -0.65999252
N        9.16370486      -5.97013261       1.20823444
C        9.11796478      -5.18206166       2.04589550
C        9.06209162      -4.21940472       3.06912852
C        7.90319838      -3.87497266       3.68018243
C        6.58370961      -4.54528322       3.38528024
O        6.38427247      -5.42793994       2.57695248
N        5.66342889      -3.95383255       4.24216199
C        4.26155763      -4.31313409       4.27366500
C        3.40312461      -3.41694635       3.40982026
C        3.57390074      -3.39921227       2.01611465
C        2.77432045      -2.58715559       1.20962579
C        1.79153875      -1.79153875       1.79153875
C        1.60197673      -1.80049639       3.17177077
C        2.40516658      -2.61132342       3.97852281
C        6.25966766      -2.95875714       5.03026053
C        5.65137804      -2.14771776       5.97817583
C        6.43703237      -1.20779669       6.64732082
C        7.80038548      -1.09724460       6.35353765
C        8.40538676      -1.91901606       5.39586277
C        7.62818174      -2.86397854       4.73519239
C       10.24075195      -3.59133380       3.50857548
N       11.20566345      -3.07717457       3.86832413
H        3.91614535      -4.31156903       5.31435183
H        4.14951047      -5.34441287       3.91692875
H        4.32693987      -4.02949741       1.54513263
H        2.92304098      -2.59081704       0.13297802
H        0.82941242      -1.18608213       3.62689667
H        2.23577560      -2.61316687       5.05291387
H        4.59465003      -2.21954438       6.20717204
H        5.98169373      -0.55959936       7.39320910
H        9.46195428      -1.78416456       5.19828052
C        8.59445927      -0.11673050       7.04753975
C        9.25949608       0.70445006       7.62876650
Br      10.33480435       2.03222956       8.56856101
C       -0.00445707       0.01189536      -1.78238275
H       -0.66409135       0.67374010      -2.43557963
H        0.65740317      -0.63156657      -2.45157240
C       -0.90989263      -0.90692880      -0.91072765
C        0.90977584       0.90977584      -0.90977584
C       -0.00465871       1.77757030       0.00794375
H       -0.66225468       2.44313916      -0.64384735
H        0.64322798       2.43503045       0.67728295
C       -1.78241447       0.00034974      -0.00472694
H       -2.45427497      -0.65498947       0.64260836
H       -2.43311707       0.67328779      -0.65473579
C       -0.91132561       0.90220522       0.91563759
C       -0.01476271      -0.02253852       1.78660255
H       -0.67934791      -0.69751639       2.42135241
H        0.63392994       0.61504881       2.47327442
C        0.01484550      -1.77751727      -0.01636693
H        0.67870853      -2.42144646      -0.68295456
H       -0.62264859      -2.45592969       0.64226336
C        1.78714474       0.01002794       0.00389507
H        2.44202412       0.67113390       0.66197326
H        2.45385902      -0.65136977      -0.64189061
C        0.91606151      -0.90478549       0.90901405
