174
Properties=species:S:1:pos:R:3 pbc="F F F"
C        1.79128977       1.79128977      -1.79128977
C        1.28157769       2.30557700      -2.98360722
C        2.08681529       3.10953162      -3.79455941
C        3.39841138       3.39363118      -3.40117341
C        3.90256701       2.88911180      -2.19778050
C        3.09789428       2.07868478      -1.39457431
C        4.24786287       4.26757634      -4.24883422
N        5.43815513       3.99464985      -4.70085360
N        5.96147190       2.75028812      -4.49422815
C        7.25879285       2.37861157      -4.82464697
O        7.60368271       1.21377994      -4.61719128
C        8.14669700       3.37045595      -5.37226993
N        7.81343929       4.66314995      -5.65017872
H        6.89580443       5.07995381      -5.51237813
N        8.81847388       5.41101185      -6.12485958
C        9.86111667       4.56573629      -6.18959564
C        9.47774917       3.27551313      -5.72970830
C       11.17438471       5.00844521      -6.66385297
C       11.52623025       6.36603416      -6.60197636
C       12.77949663       6.80366162      -7.04077894
C       13.68866250       5.88181654      -7.55265428
Br      15.38357111       6.46903668      -8.14957270
C       13.35672859       4.53094446      -7.62969677
C       12.10275953       4.09536661      -7.18510421
C        3.67907568       5.62445579      -4.60574108
H        0.26057320       2.08599984      -3.28945753
H        1.68401101       3.50193824      -4.72535377
H        4.91410005       3.12866169      -1.87520340
H        3.49404513       1.68228776      -0.46263592
H        5.38034046       1.99864736      -4.13999830
H       10.09116274       2.38991136      -5.64283727
H       10.82063210       7.09324174      -6.20390896
H       13.02870467       7.85957815      -6.97786220
H       14.06107374       3.81007578      -8.03560639
H       11.86068234       3.03894777      -7.26561054
H        2.75312110       5.83796139      -4.06549046
H        3.48337684       5.65748235      -5.68182631
H        4.41150846       6.39872679      -4.35559339
C       -1.79128977      -1.79128977      -1.79128977
C       -1.21173452      -2.80630270      -2.55272468
C       -2.01506420      -3.61241142      -3.36343070
C       -3.39601464      -3.39508903      -3.40211229
C       -3.97684869      -2.38635268      -2.62625794
C       -3.16976338      -1.57702188      -1.82436811
C       -4.25460347      -4.26594597      -4.24372400
N       -5.11398074      -3.87790141      -5.14177643
N       -5.19634582      -2.55187185      -5.45777049
C       -6.14794981      -2.00465031      -6.30945127
O       -6.09816203      -0.79526223      -6.54122968
C       -7.15922637      -2.86546764      -6.86472888
N       -7.24688752      -4.21192502      -6.66795543
H       -6.60395188      -4.77147848      -6.11270602
N       -8.29562849      -4.79755933      -7.26115749
C       -8.91775436      -3.79476715      -7.90392710
C       -8.23240253      -2.56825954      -7.68230852
C      -10.13579710      -4.02728463      -8.68360117
C      -10.94934193      -5.13748220      -8.40741663
C      -12.12060790      -5.36811779      -9.13521148
C      -12.48178355      -4.48885998     -10.15248979
Br     -14.06327016      -4.79784421     -11.14106611
C      -11.68468015      -3.38501880     -10.44767086
C      -10.51498072      -3.15435389      -9.71389574
C       -4.13299053      -5.75805362      -4.01822840
H       -0.13739737      -2.97676221      -2.52187098
H       -1.55500890      -4.39786781      -3.95842630
H       -5.05399608      -2.23034479      -2.63362426
H       -3.62270819      -0.78926119      -1.22699943
H       -4.49707726      -1.89773796      -5.12417091
H       -8.49255269      -1.58459067      -8.04676801
H      -10.67341182      -5.83017417      -7.61419681
H      -12.73513052      -6.23259208      -8.89842243
H      -11.95973545      -2.70112914     -11.24589131
H       -9.90222377      -2.29384910      -9.96916778
H       -3.51284661      -5.99413682      -3.14958952
H       -3.69496399      -6.21896345      -4.90875807
H       -5.13011310      -6.17984993      -3.85586560
C       -1.79128977       1.79128977       1.79128977
C       -3.15626990       1.89247720       1.52201480
C       -3.96519420       2.70128363       2.32442851
C       -3.39789550       3.40147367       3.39384680
C       -2.03157817       3.28675503       3.67112611
C       -1.22485512       2.48474220       2.86155605
C       -4.25949843       4.24206196       4.26271305
N       -4.07376685       5.49497063       4.56492110
N       -3.05930329       6.18338185       3.96330303
C       -2.69109332       7.48319222       4.28776586
O       -1.77727858       8.00834231       3.64903304
C       -3.37468309       8.14973259       5.36500721
N       -4.40956966       7.63133824       6.08586006
H       -4.82879543       6.71544259       5.94389836
N       -4.86464175       8.42611463       7.06358894
C       -4.11237175       9.53554656       6.96853030
C       -3.16926104       9.40144743       5.91226213
C       -4.29948135      10.66526364       7.88193791
C       -4.88862402      10.46527260       9.14034414
C       -5.06494638      11.53089058      10.02810022
C       -4.65720726      12.80924618       9.65667988
Br      -4.89579067      14.25379181      10.85259800
C       -4.07703812      13.03076940       8.40956229
C       -3.89762042      11.96075405       7.52485588
C       -5.46631483       3.56551151       4.87744621
H       -3.59846087       1.34670159       0.69086810
H       -5.02733879       2.77943152       2.10453271
H       -1.59059844       3.80958619       4.51778051
H       -0.16176549       2.40212780       3.07507551
H       -2.55851283       5.78239101       3.17808228
H       -2.41609740      10.10996746       5.59784652
H       -5.21095002       9.46892092       9.43791186
H       -5.51966021      11.34836300      10.99812182
H       -3.76464791      14.02845108       8.11365691
H       -3.45386562      12.15864311       6.55273192
H       -5.46638544       2.48628501       4.70390250
H       -6.37513064       3.99873436       4.44882050
H       -5.46611327       3.74178011       5.95793525
C        1.79128977      -1.79128977       1.79128977
C        3.17847872      -1.65419455       1.73808863
C        3.98829813      -2.46193566       2.54067253
C        3.39905117      -3.40072502       3.39343977
C        2.00721247      -3.52610932       3.45613752
C        1.20166203      -2.72351827       2.64597307
C        4.25618638      -4.24300083       4.26508623
N        4.23793677      -5.54200738       4.35371442
N        3.44485148      -6.25796120       3.50317548
C        3.25299849      -7.63204370       3.57700921
O        2.53661599      -8.16836371       2.72967423
C        3.87850072      -8.36356683       4.64735533
N        4.70267196      -7.83031011       5.59378589
H        4.98168656      -6.85385694       5.65259288
N        5.14006416      -8.70281403       6.51146712
C        4.60090626      -9.87612973       6.13941262
C        3.80641131      -9.70437447       4.97218482
C        4.84064258     -11.10275455       6.90328576
C        5.20632244     -11.03118237       8.25673595
C        5.42861322     -12.19252766       9.00279630
C        5.29238475     -13.43705087       8.39369770
Br       5.59434910     -15.01019192       9.39763946
C        4.93741356     -13.53023866       7.04971760
C        4.71095072     -12.36553484       6.30674478
C        5.23718885      -3.51376246       5.15832124
H        3.63743629      -0.92283719       1.07575708
H        5.06908294      -2.35298041       2.48923967
H        1.54349527      -4.23743769       4.13703218
H        0.12011733      -2.82719910       2.69165238
H        3.00038340      -5.80795303       2.71064969
H        3.23141924     -10.45037847       4.44211366
H        5.31579056     -10.06188885       8.74010339
H        5.70640681     -12.10957721      10.05016101
H        4.83763145     -14.49970796       6.56941648
H        4.44667296     -12.46160009       5.25696760
H        5.08458074      -2.43152437       5.14046785
H        6.25583230      -3.73879537       4.82805783
H        5.11414919      -3.86315890       6.18852055
C       -0.00445707       0.01189536      -1.78238275
H       -0.66409135       0.67374010      -2.43557963
H        0.65740317      -0.63156657      -2.45157240
C       -0.90989263      -0.90692880      -0.91072765
C        0.90977584       0.90977584      -0.90977584
C       -0.00465871       1.77757030       0.00794375
H       -0.66225468       2.44313916      -0.64384735
H        0.64322798       2.43503045       0.67728295
C       -1.78241447       0.00034974      -0.00472694
H       -2.45427497      -0.65498947       0.64260836
H       -2.43311707       0.67328779      -0.65473579
C       -0.91132561       0.90220522       0.91563759
C       -0.01476271      -0.02253852       1.78660255
H       -0.67934791      -0.69751639       2.42135241
H        0.63392994       0.61504881       2.47327442
C        0.01484550      -1.77751727      -0.01636693
H        0.67870853      -2.42144646      -0.68295456
H       -0.62264859      -2.45592969       0.64226336
C        1.78714474       0.01002794       0.00389507
H        2.44202412       0.67113390       0.66197326
H        2.45385902      -0.65136977      -0.64189061
C        0.91606151      -0.90478549       0.90901405
