126
Properties=species:S:1:pos:R:3 pbc="F F F"
O        3.79290785       8.85128417       1.07970919
C        3.98446528       8.13153606       0.11168136
C        3.84007377       6.66647646       0.20069128
H        3.65900116       6.16561860       1.13614375
C        4.14982018       6.07427934      -1.12737444
H        5.06179957       5.47244146      -1.05123369
C        3.00000666       5.23624308      -1.71025279
C        2.63239646       3.99022599      -0.88758649
H        2.32520490       4.27639848       0.12410633
C        3.72804241       2.98888810      -0.80403155
H        4.69168037       3.08234807      -0.33380820
C        3.23840460       1.70399152      -1.33802181
O        3.95206575       0.71412627      -1.37202488
C        1.81183843       1.81183843      -1.81183843
H        1.71078875       1.55294687      -2.86659470
C        1.49755229       3.24657318      -1.53118119
H        0.52829382       3.68746964      -1.72390370
C        4.43938387       7.25842284      -2.00402475
H        4.72397935       7.17493748      -3.04459786
C        4.36965145       8.56452288      -1.27947425
H        3.63961780       9.25106687      -1.71015415
H        2.10473839       5.86750175      -1.81375899
H        3.26882127       4.93165258      -2.73279624
C        5.68559720       9.14783094      -1.23899614
C        6.78770177       9.63635144      -1.20509572
Br       8.56971165      10.42624777      -1.15028161
O       -5.65555908       1.76009615      -7.66901991
C       -5.46334136       0.65188341      -7.19286203
C       -4.25401911       0.35189673      -6.40373657
H       -3.44997761       1.05979188      -6.29829029
C       -4.30273276      -1.07151872      -5.97722248
H       -3.49396543      -1.62393024      -6.46757906
C       -4.23448850      -1.25932277      -4.45269126
C       -2.92465866      -0.78082931      -3.80472097
H       -2.77275114       0.28758547      -3.99233139
C       -1.72682334      -1.53503441      -4.25910431
H       -1.28958931      -1.57651987      -5.24172745
C       -1.06683073      -2.13125167      -3.08233554
O       -0.04967191      -2.79748654      -3.19105845
C       -1.81183843      -1.81183843      -1.81183843
H       -2.12998537      -2.71347107      -1.28687388
C       -2.95875762      -0.99743389      -2.31911515
H       -3.70726597      -0.56269263      -1.66970855
C       -5.61066431      -1.57618085      -6.51498629
H       -5.95060559      -2.59653732      -6.39637178
C       -6.36639445      -0.55010640      -7.29714772
H       -7.35883200      -0.35160412      -6.89040270
H       -5.07553540      -0.72858988      -3.98187385
H       -4.38792036      -2.32401309      -4.22133664
C       -6.43194148      -0.96637241      -8.67411039
C       -6.48683711      -1.31499520      -9.82731663
Br      -6.57559870      -1.87868876     -11.69195358
O       -6.93702922      -1.87364203       6.50109564
C       -6.53059626      -0.75461360       6.22833732
C       -5.18657757      -0.54070156       5.65998294
H       -4.47604249      -1.34245765       5.55489118
C       -4.98223880       0.91717756       5.45205759
H       -4.19181775       1.27091578       6.12274119
C       -4.65902324       1.29132884       3.99615045
C       -3.34040471       0.70880490       3.46099932
H       -3.36065325      -0.38557093       3.50241474
C       -2.13684299       1.20583076       4.17828831
H       -1.85238716       1.05076784       5.20468164
C       -1.23307193       1.84439523       3.20295078
O       -0.16554774       2.32817150       3.54449767
C       -1.81183843       1.81183843       1.81183843
H       -1.92511468       2.81247452       1.39274111
C       -3.11957020       1.12159990       2.03413656
H       -3.81131429       0.89489697       1.23345589
C       -6.27880903       1.53954521       5.88347722
H       -6.45956348       2.60633957       5.87761163
C       -7.27294886       0.54635269       6.39434702
H       -8.20944116       0.55621242       5.83518524
H       -5.48118244       0.96116155       3.34365513
H       -4.63411077       2.38804232       3.91111700
C       -7.49163421       0.78294755       7.79784251
C       -7.67478319       0.98109576       8.97326998
Br      -7.97091960       1.30148464      10.87383679
O        3.80579328      -8.84494943      -1.08625987
C        3.99516074      -8.12621096      -0.11705172
C        3.84898277      -6.66122548      -0.20434930
H        3.66847313      -6.15938874      -1.13938586
C        4.15623777      -6.07035199       1.12488420
H        5.06753298      -5.46723376       1.05070799
C        3.00458236      -5.23456480       1.70735537
C        2.63642175      -3.98795837       0.88582881
H        2.33091405      -4.27321520      -0.12663220
C        3.73087413      -2.98509304       0.80499489
H        4.69524152      -3.07669285       0.33590226
C        3.23887655      -1.70152679       1.34001459
O        3.95120724      -0.71078199       1.37622766
C        1.81183843      -1.81183843       1.81183843
H        1.70908515      -1.55444775       2.86679742
C        1.49977948      -3.24661389       1.52891328
H        0.53084517      -3.68901661       1.71980537
C        4.44620167      -7.25525622       2.00037357
H        4.72933904      -7.17275297       3.04142268
C        4.37910459      -8.56050377       1.27404021
H        3.64940509      -9.24855236       1.70288137
H        2.11000097      -5.86711763       1.80888053
H        3.27167520      -4.93095385       2.73064105
C        5.69585793      -9.14205199       1.23451435
C        6.79863886      -9.62909862       1.20141145
Br       8.58174235     -10.41661184       1.14788684
C       -0.00445707       0.01189536      -1.78238275
H       -0.66409135       0.67374010      -2.43557963
H        0.65740317      -0.63156657      -2.45157240
C       -0.90989263      -0.90692880      -0.91072765
C        0.90977584       0.90977584      -0.90977584
C       -0.00465871       1.77757030       0.00794375
H       -0.66225468       2.44313916      -0.64384735
H        0.64322798       2.43503045       0.67728295
C       -1.78241447       0.00034974      -0.00472694
H       -2.45427497      -0.65498947       0.64260836
H       -2.43311707       0.67328779      -0.65473579
C       -0.91132561       0.90220522       0.91563759
C       -0.01476271      -0.02253852       1.78660255
H       -0.67934791      -0.69751639       2.42135241
H        0.63392994       0.61504881       2.47327442
C        0.01484550      -1.77751727      -0.01636693
H        0.67870853      -2.42144646      -0.68295456
H       -0.62264859      -2.45592969       0.64226336
C        1.78714474       0.01002794       0.00389507
H        2.44202412       0.67113390       0.66197326
H        2.45385902      -0.65136977      -0.64189061
C        0.91606151      -0.90478549       0.90901405
