141
Properties=species:S:1:pos:R:3 pbc="F F F"
C        0.00000000       0.00000000       0.00000000
C        0.88161053       0.88161053      -0.88161053
C        1.79384884       0.29440355      -1.75448224
C        2.61471502       1.09832548      -2.55095389
C        2.53529501       2.49774247      -2.47505203
C        1.59992838       3.06983910      -1.59184556
C        0.77585631       2.26734872      -0.80050576
P        3.64425063       3.61223804      -3.41532149
S        2.66564111       4.95006395      -4.49536797
N        4.54476298       4.50058831      -2.36041677
C        5.05747162       4.18245132      -1.11535756
C        5.24976196       2.88588754      -0.65530673
C        5.80812324       2.67801229       0.60499266
C        6.16305434       3.76807615       1.37865827
C        5.94314805       5.02594725       0.85333317
N        5.40658221       5.24775697      -0.36815138
C        4.72470937       2.53917368      -4.42898274
C        6.05117898       2.26945448      -4.05803703
C        6.84547641       1.40823066      -4.82100122
C        6.32920107       0.83316505      -5.97776979
Br       7.40388988      -0.33302950      -7.00540039
C        5.02764539       1.11401591      -6.38405477
C        4.22854462       1.96159524      -5.61179423
H        1.87995326      -0.78787221      -1.81706173
H        3.32572976       0.60868178      -3.21062810
H        1.51975737       4.15348402      -1.50933134
H        0.06465721       2.73242655      -0.12251992
H        4.46408372       5.51168595      -2.42214896
H        4.99551097       2.02101014      -1.25372236
H        5.96730356       1.66573111       0.97135382
H        6.60154691       3.64431747       2.36283173
H        6.20338925       5.91968636       1.41275472
H        6.48846331       2.73057753      -3.17703517
H        7.86516782       1.20154520      -4.50571102
H        4.62600563       0.68364346      -7.29831818
H        3.21321158       2.17356526      -5.94264281
C       -0.88161053      -0.88161053      -0.88161053
C       -1.67823509      -1.86448148      -0.30001806
C       -2.47390434      -2.68492643      -1.10516362
C       -2.47328899      -2.53404687      -2.50075365
C       -1.66670627      -1.52831058      -3.06659619
C       -0.87638437      -0.70485960      -2.26246681
P       -3.41425761      -3.63414544      -3.62340711
S       -4.60715557      -2.64813860      -4.85577886
N       -2.36356857      -4.43568659      -4.60651289
C       -1.08055295      -4.89914652      -4.37558104
C       -0.54630984      -5.13034674      -3.11429965
C        0.74850582      -5.63322912      -2.99641959
C        1.48195150      -5.89508581      -4.13933790
C        0.88322778      -5.64153575      -5.35745416
N       -0.37252267      -5.15774365      -5.49222425
C       -4.31843707      -4.81552538      -2.55890334
C       -3.87041814      -6.13289433      -2.37535801
C       -4.54916870      -7.00579415      -1.51974545
C       -5.69880723      -6.57755004      -0.86377865
Br      -6.61245926      -7.75839704       0.29459553
C       -6.18143791      -5.28629348      -1.05798468
C       -5.49295197      -4.40878985      -1.90019227
H       -1.68138450      -2.00598747       0.77822918
H       -3.07257379      -3.45149014      -0.62097571
H       -1.64345372      -1.39164202      -4.14747699
H       -0.25820673       0.06163032      -2.72302727
H       -2.48053662      -4.30936975      -5.60801226
H       -1.11152705      -4.94908972      -2.20962670
H        1.17321268      -5.82240003      -2.01249352
H        2.49123442      -6.28838003      -4.08588705
H        1.40836802      -5.82935543      -6.28933348
H       -2.99388959      -6.50190311      -2.90028329
H       -4.17473817      -8.01692362      -1.38076225
H       -7.09098472      -4.95304501      -0.56393754
H       -5.88296033      -3.40254413      -2.04391518
C       -0.88161053       0.88161053       0.88161053
C       -1.75064465       1.79757613       0.29451385
C       -2.54707309       2.61842313       1.09849817
C       -2.47495630       2.53523669       2.49789652
C       -1.59560786       1.59615505       3.06985013
C       -0.80432308       0.77211166       2.26727605
P       -3.41524105       3.64374641       3.61282270
S       -4.50120301       2.66449224       4.94537778
N       -2.36031798       4.53928490       4.50616518
C       -1.11314370       5.04961565       4.19252115
C       -0.64928640       5.24403732       2.89763251
C        0.61296229       5.79969992       2.69440526
C        1.38473896       6.14986558       3.78734558
C        0.85563634       5.92809400       5.04330447
N       -0.36777779       5.39409179       5.26062099
C       -4.42339078       4.72953207       2.53994294
C       -4.04837070       6.05573216       2.27456763
C       -4.80709778       6.85417590       1.41343462
C       -5.96370494       6.34233281       0.83409816
Br      -6.98560029       7.42262209      -0.33196161
C       -6.37402894       5.04110852       1.11057860
C       -5.60598292       4.23787252       1.95807866
H       -1.81023382       1.88660318      -0.78769422
H       -3.20367455       3.33237170       0.60899339
H       -1.51607245       1.51300685       4.15349342
H       -0.12934772       0.05799457       2.73226140
H       -2.42484365       4.45618288       5.51689211
H       -1.24613355       4.99352766       2.03058226
H        0.98231838       5.96052582       1.68347343
H        2.37034220       6.58615225       3.66722261
H        1.41343110       6.18461996       5.93913202
H       -3.16743847       6.48958146       2.73905607
H       -4.48867738       7.87358132       1.21016535
H       -7.28821021       4.64291018       0.67684688
H       -5.93996399       3.22285177       2.16660389
C        0.88161053      -0.88161053       0.88161053
C        1.60725922      -0.31125841       1.92421700
C        2.42871876      -1.11231960       2.72295602
C        2.53730712      -2.49061518       2.48016721
C        1.78810830      -3.04736991       1.42613483
C        0.96309305      -2.24873487       0.63188286
P        3.66599894      -3.58353917       3.42227206
S        2.75025736      -5.14985340       4.21096227
N        4.78556305      -4.22294480       2.39726021
C        5.39072450      -3.69298481       1.27157120
C        5.46692754      -2.33502786       0.98900083
C        6.13284254      -1.90662945      -0.15832911
C        6.70875339      -2.84218668      -0.99846786
C        6.59304377      -4.17344681      -0.65072846
N        5.95476049      -4.60817255       0.45955752
C        4.47963253      -2.53337503       4.67985823
C        5.79424079      -2.07068473       4.51374496
C        6.38115808      -1.22961569       5.46393453
C        5.66864762      -0.86855498       6.60293331
Br       6.46315461       0.27095035       7.88405650
C        4.37602128      -1.34390615       6.80578863
C        3.78368116      -2.17088725       5.84736568
H        1.54716484       0.75697299       2.11895093
H        2.99256045      -0.63364732       3.51883188
H        1.85647291      -4.11374142       1.21235839
H        0.39800581      -2.70088748      -0.17928960
H        4.82791102      -5.23626164       2.33374597
H        5.03868820      -1.58768732       1.64386795
H        6.20206672      -0.84448016      -0.38486603
H        7.23611330      -2.54537971      -1.89846035
H        7.02646383      -4.95352019      -1.26966313
H        6.38328523      -2.36350914       3.64928163
H        7.39521442      -0.87073964       5.30646998
H        3.82226676      -1.08160013       7.70410038
H        2.77283766      -2.53646124       6.02012075
