149
Properties=species:S:1:pos:R:3 pbc="F F F"
C        0.00000000       0.00000000       0.00000000
C        0.88161053       0.88161053      -0.88161053
C        1.79384884       0.29440355      -1.75448224
C        2.61471502       1.09832548      -2.55095389
C        2.53529501       2.49774247      -2.47505203
C        1.59992838       3.06983910      -1.59184556
C        0.77585631       2.26734872      -0.80050576
P        3.64425063       3.61223804      -3.41532149
S        2.66564111       4.95006395      -4.49536797
N        4.54476298       4.50058831      -2.36041677
C        5.05747162       4.18245132      -1.11535756
C        5.24976196       2.88588754      -0.65530673
C        5.80812324       2.67801229       0.60499266
C        6.16305434       3.76807615       1.37865827
C        5.94314805       5.02594725       0.85333317
N        5.40658221       5.24775697      -0.36815138
C        4.72470937       2.53917368      -4.42898274
C        6.05117898       2.26945448      -4.05803703
C        6.84547641       1.40823066      -4.82100122
C        6.32920107       0.83316505      -5.97776979
C        5.02764539       1.11401591      -6.38405477
C        4.22854462       1.96159524      -5.61179423
H        1.87995326      -0.78787221      -1.81706173
H        3.32572976       0.60868178      -3.21062810
H        1.51975737       4.15348402      -1.50933134
H        0.06465721       2.73242655      -0.12251992
H        4.46408372       5.51168595      -2.42214896
H        4.99551097       2.02101014      -1.25372236
H        5.96730356       1.66573111       0.97135382
H        6.60154691       3.64431747       2.36283173
H        6.20338925       5.91968636       1.41275472
H        6.48846331       2.73057753      -3.17703517
H        7.86516782       1.20154520      -4.50571102
H        4.62600563       0.68364346      -7.29831818
H        3.21321158       2.17356526      -5.94264281
C        7.14813879      -0.05550216      -6.76084807
C        7.83399914      -0.79976096      -7.41667612
Br       8.94297731      -2.00316448      -8.47709462
C       -0.88161053      -0.88161053      -0.88161053
C       -1.76333952      -1.78517282      -0.29422228
C       -2.55991210      -2.60608241      -1.09799987
C       -2.47527593      -2.53542770      -2.49738588
C       -1.58316437      -1.60870917      -3.06973950
C       -0.79169596      -0.78457200      -2.26744283
P       -3.41551860      -3.64541252      -3.61087905
S       -4.48181169      -2.66840676      -4.96085458
N       -2.36075432      -4.55740154      -4.48761220
C       -1.12066387      -5.07555554      -4.15906109
C       -0.66942928      -5.26285309      -2.85867386
C        0.58628080      -5.82740323      -2.64002045
C        1.36424860      -6.19336753      -3.72335327
C        0.84767758      -5.97783961      -4.98560010
N       -0.36926622      -5.43539618      -5.21782816
C       -4.44190116      -4.71347124      -2.53749340
C       -4.08044229      -6.04048269      -2.25774551
C       -4.85318530      -6.82512938      -1.39639362
C       -6.01024238      -6.29862355      -0.83126998
C       -6.40712154      -4.99638257      -1.12221195
C       -5.62513457      -4.20690655      -1.96989297
H       -1.83282044      -1.86447459       0.78815224
H       -3.22667936      -3.31026700      -0.60809328
H       -1.49377660      -1.53546647      -4.15332965
H       -0.10676172      -0.08016525      -2.73267671
H       -2.41603335      -4.48236766      -5.49951762
H       -1.27142142      -4.99993829      -1.99888375
H        0.94570473      -5.98272756      -1.62465802
H        2.34505141      -6.63692209      -3.59116197
H        1.41081189      -6.24668558      -5.87444719
H       -3.19934589      -6.48569461      -2.71103550
H       -4.54518507      -7.84541919      -1.18181979
H       -7.32150847      -4.58680022      -0.69965858
H       -5.94868731      -3.19091447      -2.18981787
C       -6.80340723      -7.10762782       0.05755036
C       -7.46768280      -7.78516890       0.80193740
Br      -8.54176021      -8.88069552       2.00554828
C       -0.88161053       0.88161053       0.88161053
C       -1.73493658       1.81263606       0.29516198
C       -2.53119138       2.63340225       1.09940076
C       -2.47457247       2.53499283       2.49852421
C       -1.61101405       1.58090260       3.06969638
C       -0.81995018       0.75697955       2.26678106
P       -3.41494249       3.64167753       3.61519014
S       -4.52484892       2.66009551       4.92612860
N       -2.36020744       4.51684844       4.52871217
C       -1.10460937       5.01733086       4.23334028
C       -0.62525388       5.22027911       2.94542324
C        0.64473167       5.76478851       2.76108604
C        1.40862194       6.09554060       3.86555354
C        0.86415222       5.86633025       5.11358411
N       -0.36692616       5.34292714       5.31263726
C       -4.40053374       4.74898495       2.54334710
C       -4.00905921       6.07386664       2.29574463
C       -4.75044123       6.88906503       1.43520205
C       -5.90616233       6.39536235       0.83861123
C       -6.33279466       5.09570793       1.09721348
C       -5.58200177       4.27576143       1.94417090
H       -1.78228474       1.91347287      -0.78661483
H       -3.17521804       3.35920214       0.61061946
H       -1.54367600       1.48572063       4.15317609
H       -0.15729702       0.03107275       2.73123391
H       -2.43615212       4.42397306       5.53779345
H       -1.21556401       4.98500646       2.06967299
H        1.02628007       5.93219475       1.75576617
H        2.39988814       6.52271928       3.76020152
H        1.41517558       6.10772907       6.01776740
H       -3.12858950       6.49365412       2.77383238
H       -4.41938359       7.90713440       1.24590606
H       -7.24646250       4.71159695       0.64990783
H       -5.92862797       3.26218455       2.13860712
C       -6.66698003       7.23581241      -0.04930775
C       -7.30416486       7.93968934      -0.79293990
Br      -8.33443883       9.07779880      -1.99533018
C        0.88161053      -0.88161053       0.88161053
C        1.71124541      -0.29672216       1.83476705
C        2.53245858      -1.09931731       2.63221850
C        2.53639436      -2.49445293       2.47724222
C        1.68340013      -3.06492940       1.51328351
C        0.85879729      -2.26422278       0.72069072
P        3.65468149      -3.59940214       3.41772654
S        2.69687136      -5.04651001       4.36769165
N        4.65905016      -4.37732195       2.36939595
C        5.21879824      -3.96240048       1.17408178
C        5.36185523      -2.63349449       0.79560651
C        5.97416146      -2.32519901      -0.41821759
C        6.43096108      -3.34927802      -1.22776689
C        6.25469616      -4.64477254      -0.78370657
N        5.66698172      -4.96360225       0.39190659
C        4.61705256      -2.52908826       4.54672497
C        5.94409845      -2.16831268       4.26625936
C        6.64654577      -1.31033413       5.11782840
C        6.03750245      -0.82996183       6.27267163
C        4.73403451      -1.20249978       6.58918178
C        4.02652460      -2.04660681       5.72880268
H        1.73260230       0.78334299       1.95988348
H        3.17838940      -0.61041061       3.35623963
H        1.66910180      -4.14491618       1.36855475
H        0.21227387      -2.72761341      -0.02028359
H        4.63243480      -5.39315731       2.37232652
H        5.02752163      -1.81863663       1.42408521
H        6.09525973      -1.28677736      -0.72035623
H        6.91375109      -3.14685206      -2.17757049
H        6.59454756      -5.49028730      -1.37451397
H        6.45320966      -2.55488961       3.38797673
H        7.66832827      -1.03194690       4.87214887
H        4.26041880      -0.84655366       7.50099482
H        3.00855400      -2.33090851       5.98995713
C        6.76188968       0.05555802       7.14715303
C        7.36856399       0.79718090       7.87953121
Br       8.34950504       1.99632237       9.06372478
