181
Properties=species:S:1:pos:R:3 pbc="F F F"
C        0.00000000       0.00000000       0.00000000
C        0.88136705       0.88136705      -0.88136705
C        0.45079638       1.23586271      -2.15707688
C        1.25886346       2.04651691      -2.95856233
C        2.49903829       2.50562329      -2.48844926
C        2.92174394       2.13998931      -1.20369747
C        2.11177404       1.32805739      -0.40206518
C        3.31250380       3.38663890      -3.38006860
O        2.85713031       3.71443369      -4.47578472
C        4.66689798       3.87974388      -2.87847316
O        5.31185314       4.68405270      -3.86723961
C        5.99107923       3.98679742      -4.81073291
O        6.25327615       2.79555101      -4.77299687
C        6.39742098       4.89359169      -5.91402394
C        5.78552628       6.13067230      -6.11471236
C        6.15681793       6.93727528      -7.19912922
C        7.14077823       6.53721093      -8.11873339
C        7.75591841       5.29457359      -7.88623387
C        7.38746615       4.47898161      -6.80411572
N        7.47280346       7.34424825      -9.25331619
C        8.41235389       7.01967646     -10.21405056
O        9.17552437       6.07748234     -10.32920768
C        8.38747355       8.07805280     -11.21912800
C        9.10632747       8.21977612     -12.39185980
C        8.84491445       9.35102554     -13.17354939
C        7.88389432      10.29674336     -12.76376759
C        7.17098741      10.13496009     -11.57502877
C        7.45184471       9.00704191     -10.82597720
C        6.87490350       8.55050718      -9.56837572
O        6.02297634       9.21726863      -9.00883567
H       -0.50729666       0.89128465      -2.53813771
H        0.91290707       2.32029053      -3.95465744
H        3.87199525       2.47005625      -0.79473993
H        2.44920935       1.05116378       0.59404531
H        5.30238303       3.04036618      -2.57709905
H        4.49998550       4.52539010      -2.01041309
H        4.99397462       6.47700994      -5.45335669
H        5.62568583       7.87958153      -7.29434018
H        8.52873715       4.90339138      -8.54179596
H        7.87364312       3.51352424      -6.67347159
H        9.83918493       7.47790529     -12.69448426
H        9.38931240       9.49236025     -14.10555396
H        6.42370168      10.84965469     -11.24509080
C        7.62904619      11.44870412     -13.58938180
C        7.41561089      12.41347126     -14.28083371
Br       7.07050404      13.97341813     -15.39885296
C       -0.88136705      -0.88136705      -0.88136705
C       -0.56688595      -2.22720425      -1.04964578
C       -1.37907990      -3.03118265      -1.85368014
C       -2.50765157      -2.49365237      -2.49180690
C       -2.81196207      -1.13738046      -2.31608819
C       -1.99783582      -0.33323741      -1.51082338
C       -3.35217084      -3.40403066      -3.32300981
O       -3.05895265      -4.59770152      -3.39069456
C       -4.57430915      -2.82254211      -4.02826376
O       -5.24360494      -3.82601226      -4.79352825
C       -4.72037607      -4.04312681      -6.02510668
O       -3.89051401      -3.34569999      -6.58561003
C       -5.32060016      -5.26353824      -6.62089821
C       -5.96571344      -6.22355978      -5.84163773
C       -6.47285609      -7.39004149      -6.43032486
C       -6.34903661      -7.64045827      -7.80722766
C       -5.71075315      -6.65079086      -8.57518186
C       -5.19697953      -5.48088700      -7.99269696
N       -6.82181836      -8.86006924      -8.38848029
C       -6.72502659      -9.19477023      -9.72628409
O       -6.29769508      -8.59076915     -10.69375016
C       -7.26665610     -10.54206482      -9.87593344
C       -7.37609064     -11.34665869     -10.99521406
C       -7.92921841     -12.62039592     -10.81987504
C       -8.35244343     -13.04680864      -9.54515320
C       -8.23450421     -12.21747778      -8.42899428
C       -7.68364610     -10.96600374      -8.63521398
C       -7.41362065      -9.89380386      -7.68636188
O       -7.70922092     -10.02746195      -6.51239776
H        0.30224219      -2.66200697      -0.56236092
H       -1.12626263      -4.08354122      -1.97805118
H       -3.67396793      -0.67511563      -2.78770788
H       -2.24392261       0.71805488      -1.38046010
H       -4.29569213      -1.96897741      -4.65517872
H       -5.28447383      -2.48430664      -3.26700822
H       -6.06122292      -6.09805983      -4.76505851
H       -6.94993088      -8.09428986      -5.75538679
H       -5.57126861      -6.75524896      -9.64740690
H       -4.68979138      -4.75017108      -8.62067649
H       -7.03952447     -11.00326593     -11.96878407
H       -8.02633632     -13.28220764     -11.67868265
H       -8.55020988     -12.52967144      -7.43856585
C       -8.91219896     -14.36450847      -9.39042469
C       -9.38099422     -15.46808207      -9.26083956
Br     -10.13899650     -17.25246726      -9.05131138
C       -0.88136705       0.88136705       0.88136705
C       -1.88108518       0.30343375       1.65921704
C       -2.68243392       1.11362611       2.46788267
C       -2.48771105       2.50312928       2.50227051
C       -1.47972574       3.07254182       1.71316317
C       -0.67798523       2.26024429       0.90366709
C       -3.35993071       3.31860369       3.40067690
O       -4.18988804       2.74854109       4.10891959
C       -3.16011297       4.83125479       3.43374726
O       -4.09301861       5.44683966       4.32328718
C       -5.31424676       5.68790252       3.78646028
O       -5.60643573       5.61129701       2.60409129
C       -6.26634510       6.08389725       4.85479425
C       -6.02003135       5.81079561       6.20008397
C       -6.96616682       6.15021938       7.17683624
C       -8.18592836       6.76422696       6.84656722
C       -8.40453388       7.04563327       5.48655871
C       -7.46326180       6.70588515       4.50141653
N       -9.16807368       7.05625920       7.84603502
C      -10.39789839       7.64080036       7.60738215
O      -10.91891452       8.06978764       6.59351223
C      -11.10601827       7.69591525       8.88272084
C      -12.37347466       8.15766252       9.18682621
C      -12.79118363       8.05921529      10.51909045
C      -11.93859124       7.50891200      11.49690203
C      -10.66208161       7.05059790      11.16829675
C      -10.27962225       7.16119955       9.84404201
C       -9.03936259       6.76325360       9.19117020
O       -8.13641752       6.26983238       9.84283074
H       -2.04610091      -0.77104563       1.64707042
H       -3.46097088       0.65238660       3.07449755
H       -1.28950998       4.14162070       1.70566075
H        0.10226114       2.71264055       0.29594841
H       -3.23357700       5.25825553       2.42801573
H       -2.16262094       5.03961934       3.83354842
H       -5.10700461       5.30687071       6.51046594
H       -6.70650658       5.89360491       8.19949605
H       -9.31653374       7.52081771       5.13657303
H       -7.68222142       6.92155263       3.45686491
H      -13.01882834       8.57369119       8.41905495
H      -13.78487121       8.40894402      10.79341138
H       -9.99295747       6.61936311      11.90612658
C      -12.39483285       7.41295946      12.85933981
C      -12.77693520       7.33259920      14.00038145
Br     -13.39476237       7.20266347      15.84534928
C        0.88136705      -0.88136705       0.88136705
C        2.26072132      -0.89082027       0.69219439
C        3.06394251      -1.69569598       1.50430421
C        2.49216320      -2.49325920       2.50768844
C        1.10265659      -2.47636429       2.68640985
C        0.29932568      -1.67008723       1.87248370
C        3.40054409      -3.31847400       3.36019321
O        4.61691123      -3.24460977       3.18582772
C        2.78341859      -4.19618982       4.44550661
O        3.79351210      -4.92949880       5.14013455
C        4.18333595      -6.07546321       4.52981041
O        3.62711363      -6.61030824       3.58440216
C        5.39733395      -6.61370313       5.19399953
C        6.20836761      -5.81888483       6.00365851
C        7.37687016      -6.34555835       6.57079392
C        7.77747681      -7.67328740       6.34595833
C        6.93528928      -8.46036103       5.54107556
C        5.76464883      -7.93946843       4.96644623
N        9.00102722      -8.18414286       6.88519781
C        9.47859162      -9.46809112       6.69939817
O        9.01921932     -10.43856156       6.12443351
C       10.77797683      -9.54668815       7.35998938
C       11.67937461     -10.59170892       7.44687986
C       12.87153843     -10.35644954       8.14150141
C       13.12392422      -9.09774674       8.72273430
C       12.19913683      -8.05724339       8.62459605
C       11.03197599      -8.32125182       7.93163601
C        9.89792154      -7.45341695       7.64244790
O        9.88254277      -6.30861234       8.05792553
H        2.72212416      -0.27877578      -0.07877425
H        4.14241222      -1.69523651       1.35020630
H        0.61311165      -3.07471456       3.44896523
H       -0.77807701      -1.66382331       2.02058153
H        2.02817235      -4.86779678       4.02387913
H        2.30447380      -3.54643327       5.18488162
H        5.96488205      -4.77409208       6.18536713
H        7.96088372      -5.66059299       7.17813084
H        7.16157277      -9.49828918       5.31406253
H        5.15240648      -8.57729856       4.33093391
H       11.47030303     -11.55332417       6.98794727
H       13.60597796     -11.15549754       8.22575110
H       12.37751877      -7.07969137       9.06123703
C       14.36112477      -8.87949639       9.42651096
C       15.39728023      -8.69671171      10.01592391
Br      17.07265598      -8.40116436      10.96895479
