169
Properties=species:S:1:pos:R:3 pbc="F F F"
C        0.00000000       0.00000000       0.00000000
C        0.88158857       0.88158857      -0.88158857
C        1.48998558       0.34253850      -2.01157207
C        2.29403086       1.15324125      -2.81903036
C        2.49874433       2.50397712      -2.50036010
C        1.88318402       3.02711665      -1.35517345
C        1.07369596       2.22052082      -0.54919381
C        3.33594929       3.34938741      -3.34445783
C        4.52663876       2.88532628      -3.92416026
N        5.06614434       3.92460556      -4.61112268
N        6.22661849       4.17391486      -5.27580194
C        6.07389531       5.46242418      -5.58403633
C        7.10626232       6.19960822      -6.34696484
C        6.75003069       7.26382612      -7.18239114
C        7.73367521       7.94141797      -7.90741241
C        9.06682371       7.54419577      -7.80358103
Br      10.39573070       8.46079515      -8.78705799
C        9.42589384       6.47148407      -6.98818807
C        8.44281119       5.79436615      -6.26252946
N        4.84930577       6.01571539      -5.14801173
C        4.67744136       7.31489842      -4.50868514
C        3.23085538       7.83946629      -4.59967960
C        2.04654570       6.85788084      -4.45314535
C        2.16126795       5.77015637      -3.36957335
C        3.18316808       4.74161244      -3.70789291
C        4.25652632       4.99232311      -4.50428740
H        1.34578127      -0.70130598      -2.27667276
H        2.75193337       0.71896572      -3.70563724
H        2.03736663       4.06309157      -1.06770170
H        0.60404992       2.64590311       0.33436045
H        5.03456898       1.93362891      -3.87731117
H        5.70946813       7.55644819      -7.29521688
H        7.45011165       8.76646253      -8.55621498
H       10.46199859       6.15090282      -6.91448652
H        8.72135302       4.95108084      -5.63360179
H        4.97397731       7.25073075      -3.45235721
H        5.34009729       8.06493817      -4.95319992
H        3.12047093       8.62931269      -3.84527830
H        3.11222985       8.34192533      -5.56918126
H        1.87018933       6.37869849      -5.42582650
H        1.14758723       7.45398692      -4.24914616
H        1.18358351       5.28487989      -3.26557080
H        2.40494956       6.23166061      -2.40566450
C       -0.88158857      -0.88158857      -0.88158857
C       -1.21294138      -0.46378594      -2.16736884
C       -2.01764232      -1.27490731      -2.97375283
C       -2.49941737      -2.50412025      -2.49954394
C       -2.16056530      -2.90484274      -1.20006608
C       -1.35106268      -2.09878176      -0.39356615
C       -3.33703341      -3.35051458      -3.34224654
C       -4.32967414      -2.82376151      -4.18268965
N       -4.93447500      -3.87551448      -4.79188310
N       -6.00945079      -4.06253291      -5.60435159
C       -6.03974377      -5.39323906      -5.68737299
C       -7.06049638      -6.09128046      -6.50105853
C       -6.77565985      -7.32557572      -7.09501238
C       -7.74419732      -7.96619715      -7.87211113
C       -8.98820358      -7.36434737      -8.06204955
Br     -10.29631798      -8.23166057      -9.11560529
C       -9.27136243      -6.12485446      -7.48934909
C       -8.30354875      -5.48450032      -6.71165773
N       -5.00841295      -6.03690916      -4.96771078
C       -5.16198311      -7.21571527      -4.12332653
C       -3.83162883      -7.95607111      -3.88230133
C       -2.52925959      -7.14996356      -3.67834875
C       -2.61155644      -5.88523786      -2.80420338
C       -3.37718443      -4.79182032      -3.46366868
C       -4.34812537      -5.01603150      -4.38897996
H       -0.85147081       0.48493302      -2.55461027
H       -2.25671164      -0.93894039      -3.98088431
H       -2.53368535      -3.84052717      -0.79394738
H       -1.09855961      -2.42835840       0.61132542
H       -4.66524981      -1.81400473      -4.36625452
H       -5.79694209      -7.78391501      -6.98027611
H       -7.51601187      -8.92438529      -8.33239200
H      -10.23508553      -5.64677228      -7.64553013
H       -8.52072915      -4.51275959      -6.27254690
H       -5.59562031      -6.92534235      -3.15610261
H       -5.87210826      -7.92543028      -4.56069685
H       -3.97330461      -8.60987584      -3.01188146
H       -3.66040443      -8.63171422      -4.73121779
H       -2.13030243      -6.87902218      -4.66538972
H       -1.78811188      -7.82761907      -3.23498935
H       -1.59054572      -5.53918079      -2.60430769
H       -3.07168057      -6.13054661      -1.84004750
C       -0.88158857       0.88158857       0.88158857
C       -1.52506618       1.98687071       0.33215926
C       -2.33463515       2.79043958       1.14122772
C       -2.50213708       2.49797116       2.50297332
C       -1.84107623       1.38482287       3.03957502
C       -1.03578956       0.57588491       2.23173612
C       -3.34853920       3.33559288       3.34566245
C       -3.37737589       4.73339259       3.22535681
N       -4.23481235       5.19648983       4.17057040
N       -4.61378672       6.41144781       4.65110077
C       -5.40967872       6.05173225       5.65894486
C       -6.09208227       7.06108109       6.49967201
C       -7.32660255       6.77640866       7.09323674
C       -7.96584068       7.74393737       7.87272755
C       -7.37421562       8.99539992       8.04498496
Br      -8.24179767      10.30371037       9.09807580
C       -6.15359219       9.29231917       7.43965462
C       -5.51381646       8.32492729       6.66096304
N       -5.55090141       4.65399604       5.80813544
C       -5.51303417       3.92031781       7.06767294
C       -6.17068567       2.52965211       6.96966349
C       -5.98516395       1.67983966       5.69256828
C       -4.58470531       1.66315445       5.05313791
C       -4.23230475       2.96916259       4.43120608
C       -4.75187861       4.15549418       4.84576404
H       -1.40868854       2.23237777      -0.71991825
H       -2.84040744       3.64333985       0.69278905
H       -1.93198958       1.14190101       4.09426931
H       -0.53249907      -0.28397923       2.66707275
H       -2.84636870       5.41809220       2.58104816
H       -7.81014066       5.81606691       6.93492564
H       -8.92586460       7.51709065       8.32983391
H       -5.69557615      10.27067532       7.56113646
H       -4.56597421       8.55953545       6.18052599
H       -4.47149313       3.80617222       7.39939992
H       -6.01432739       4.47845319       7.86545482
H       -5.82393648       1.94168269       7.82944274
H       -7.25198483       2.65424884       7.11710278
H       -6.71761717       2.01259924       4.94449792
H       -6.26306636       0.64717550       5.94047845
H       -4.56812242       0.88240990       4.28350188
H       -3.83573078       1.39820619       5.80833771
C        0.88158857      -0.88158857       0.88158857
C        0.90998899      -2.25801486       0.67609231
C        1.72102025      -3.06250476       1.48277744
C        2.50363543      -2.49828186       2.50116427
C        2.45689354      -1.11140207       2.69717852
C        1.65157949      -0.30364888       1.88818222
C        3.35096111      -3.33807925       3.34075417
C        2.93870161      -4.59888086       3.79854282
N        3.94148755      -5.08899367       4.57139135
N        4.12970891      -6.16678689       5.37983950
C        5.33306889      -5.89881633       5.88847060
C        5.98927230      -6.82157820       6.84198488
C        7.38418684      -6.91293576       6.89912536
C        7.98947667      -7.79872139       7.79430754
C        7.19765955      -8.59779607       8.61914489
Br       8.01853181      -9.79713894       9.82791308
C        5.80662764      -8.52602820       8.55291014
C        5.20115843      -7.63992019       7.65862817
N        5.90499313      -4.69944611       5.40859365
C        6.58984320      -3.69609824       6.21508348
C        7.50804493      -2.78228531       5.37967103
C        7.06157485      -2.32224017       3.97375687
C        5.58733513      -1.91382423       3.79983831
C        4.66431491      -3.07854792       3.88981059
C        4.95583940      -4.20714658       4.59015085
H        0.31125000      -2.71624908      -0.10635102
H        1.74097577      -4.13519702       1.30036355
H        3.03383694      -0.64429763       3.49002533
H        1.63036976       0.77044770       2.05567052
H        2.02379175      -5.15660200       3.66511532
H        8.00683616      -6.31905637       6.23524068
H        9.07392300      -7.86625129       7.83261487
H        5.18614089      -9.15621875       9.18502828
H        4.11562937      -7.59059149       7.59981479
H        5.85112834      -3.07965236       6.74628456
H        7.19634151      -4.16447461       6.99741927
H        7.72066381      -1.89063864       5.98375946
H        8.47397473      -3.29095523       5.25840648
H        7.30086170      -3.11831292       3.25553971
H        7.69125120      -1.46871817       3.69075095
H        5.47568903      -1.44183865       2.81650652
H        5.31775492      -1.16800230       4.55651746
