198
Properties=species:S:1:pos:R:3 pbc="F F F"
C        1.79149259       1.79149259      -1.79149259
C        2.39988961       1.25244252      -2.92147610
C        3.20393488       2.06314528      -3.72893438
C        3.40864835       3.41388115      -3.41026413
C        2.79308804       3.93702068      -2.26507747
C        1.98359998       3.13042484      -1.45909784
C        4.24585332       4.25929143      -4.25436186
C        5.43654278       3.79523031      -4.83406428
N        5.97604837       4.83450958      -5.52102670
N        7.13652251       5.08381889      -6.18570597
C        6.98379933       6.37232820      -6.49394036
C        8.01616634       7.10951224      -7.25686887
C        7.65993472       8.17373014      -8.09229517
C        8.64357924       8.85132199      -8.81731644
C        9.97672773       8.45409979      -8.71348505
C       10.33579787       7.38138809      -7.89809209
C        9.35271521       6.70427017      -7.17243348
N        5.75920979       6.92561942      -6.05791575
C        5.58734538       8.22480244      -5.41858916
C        4.14075940       8.74937031      -5.50958363
C        2.95644973       7.76778486      -5.36304938
C        3.07117198       6.68006039      -4.27947738
C        4.09307210       5.65151646      -4.61779693
C        5.16643035       5.90222714      -5.41419142
H        2.25568530       0.20859804      -3.18657679
H        3.66183739       1.62886975      -4.61554127
H        2.94727066       4.97299560      -1.97760572
H        1.51395394       3.55580714      -0.57554358
H        5.94447300       2.84353294      -4.78721519
H        6.61937215       8.46635222      -8.20512091
H        8.36001567       9.67636655      -9.46611900
H       11.37190261       7.06080685      -7.82439055
H        9.63125704       5.86098486      -6.54350582
H        5.88388134       8.16063477      -4.36226124
H        6.25000132       8.97484220      -5.86310395
H        4.03037496       9.53921671      -4.75518232
H        4.02213388       9.25182936      -6.47908529
H        2.78009336       7.28860252      -6.33573053
H        2.05749125       8.36389095      -5.15905019
H        2.09348753       6.19478392      -4.17547483
H        3.31485359       7.14156464      -3.31556853
C       10.98904763       9.15233661      -9.46266712
C       11.83686554       9.73710994     -10.09010711
Br      13.20771540      10.68263897     -11.10462450
C       -1.79149259      -1.79149259      -1.79149259
C       -2.11855592      -1.37610127      -3.07915103
C       -2.92326882      -2.18722685      -3.88551887
C       -3.40933294      -3.41402456      -3.40943613
C       -3.07476177      -3.81232018      -2.10810425
C       -2.26526028      -3.00626674      -1.30159564
C       -4.24695832      -4.26043166      -4.25211663
C       -5.23615074      -3.73330446      -5.09638217
N       -5.84206752      -4.78506568      -5.70445145
N       -6.91546459      -4.97142784      -6.51915494
C       -6.94890391      -6.30225869      -6.59890529
C       -7.96936362      -6.99978002      -7.41340381
C       -7.68614726      -8.23628149      -8.00353127
C       -8.65433939      -8.87642229      -8.78145599
C       -9.89634250      -8.27192642      -8.97604366
C      -10.17781462      -7.03028515      -8.40717828
C       -9.21034844      -6.39040831      -7.62866211
N       -5.92101266      -6.94670404      -5.87502826
C       -6.07967792      -8.12298733      -5.02807174
C       -4.75180507      -8.86607675      -4.78183153
C       -3.44792447      -8.06273567      -4.57662382
C       -3.52923042      -6.79560687      -3.70587245
C       -4.29043789      -5.70193344      -4.37001416
C       -5.25961075      -5.92603430      -5.29720386
H       -1.75372151      -0.42927390      -3.46786472
H       -3.15895642      -1.85320022      -4.89409176
H       -3.45126020      -4.74603621      -1.70057556
H       -2.01611726      -3.33394256      -0.29524483
H       -5.56871651      -2.72317293      -5.28333169
H       -6.70887997      -8.69679017      -7.88517513
H       -8.42741377      -9.83633886      -9.23874860
H      -11.13993332      -6.55017591      -8.56699077
H       -9.42618167      -5.41702031      -7.19254574
H       -6.51501289      -7.82908677      -4.06267769
H       -6.79048804      -8.83201460      -5.46544482
H       -4.89731771      -9.51732626      -3.91013001
H       -4.58015023      -9.54428675      -5.62861154
H       -3.04580414      -7.79528824      -5.56333402
H       -2.70960526      -8.74113305      -4.12969407
H       -2.50785637      -6.45161594      -3.50427396
H       -3.99239515      -7.03732571      -2.74226589
C      -10.89246428      -8.93213174      -9.77945534
C      -11.72671627      -9.48505370     -10.45231262
Br     -13.07563119     -10.37908173     -11.54026594
C       -1.79149259       1.79149259       1.79149259
C       -2.43396797       2.89749678       1.24234347
C       -3.24354028       3.70106595       2.05140831
C       -3.41204413       3.40787468       3.41287482
C       -2.75198252       2.29400147       3.94920221
C       -1.94669651       1.48506505       3.14136110
C       -4.25844931       4.24549866       4.25555864
C       -4.28636687       5.64338815       4.13608235
N       -5.14409524       6.10643239       5.08105702
N       -5.52262501       7.32132858       5.56209378
C       -6.31934503       6.96148512       6.56923774
C       -7.00164655       7.97073800       7.41016289
C       -8.23669830       7.68645417       8.00280755
C       -8.87582264       8.65389785       8.78249718
C       -8.28354449       9.90489725       8.95587083
C       -7.06237504      10.20144343       8.35145957
C       -6.42271351       9.23413578       7.57256958
N       -6.46150427       5.56374466       6.71749603
C       -6.42484423       4.82928121       7.97661154
C       -7.08327805       3.43907375       7.87736154
C       -6.89749725       2.58992241       6.59986431
C       -5.49666187       2.57277595       5.96127192
C       -5.14309400       3.87894666       5.34034484
C       -5.66220057       5.06534159       5.75530675
H       -2.31680440       3.14357019       0.19048553
H       -3.74852435       4.55454379       1.60318026
H       -2.84368182       2.05049624       5.00369391
H       -1.44419050       0.62463278       3.57648138
H       -3.75455502       6.32815591       3.49251020
H       -8.72072174       6.72650154       7.84362200
H       -9.83626046       8.42735604       9.23888474
H       -6.60384045      11.17944822       8.47381133
H       -5.47443853       9.46846053       7.09284866
H       -5.38357363       4.71430388       8.30889983
H       -6.92628265       5.38723707       8.77442775
H       -6.73740580       2.85037397       8.73699422
H       -8.16459070       3.56423621       8.02422161
H       -7.62929557       2.92357847       5.85155236
H       -7.17617493       1.55727689       6.84698056
H       -5.48008543       1.79248759       5.19117326
H       -4.74830551       2.30691686       6.71676439
C       -8.94432378      10.90144167       9.75828592
C       -9.49772643      11.73604761      10.43030855
Br     -10.39253172      13.08553484      11.51691231
C        1.79149259      -1.79149259       1.79149259
C        2.49497899      -2.85174486       1.22708437
C        3.30434254      -3.65530313       2.03636886
C        3.41185599      -3.40791189       3.41302575
C        2.69097744      -2.33995753       3.96425122
C        1.88564643      -1.53092943       3.15654680
C        4.25806448      -4.24540713       4.25603500
C        4.34322072      -5.63582252       4.08679412
N        5.18282543      -6.10271535       5.04604388
N        5.58927844      -7.32033567       5.49643325
C        6.33453976      -6.97005736       6.54547078
C        7.02343294      -7.98486313       7.37425138
C        8.22439880      -7.67836066       8.02320057
C        8.87082525      -8.65067170       8.79072071
C        8.32040114      -9.92810748       8.89580395
C        7.13419178     -10.24590356       8.23518271
C        6.48720486      -9.27377821       7.46843580
N        6.41818099      -5.57467700       6.74988698
C        6.30784226      -4.89023221       8.03266252
C        6.91635702      -3.47417398       8.00918234
C        6.74528247      -2.58461108       6.75739042
C        5.36902694      -2.59440741       6.06727538
C        5.08804300      -3.88816186       5.38618064
C        5.63620949      -5.06969156       5.77694786
H        2.42565844      -3.06193157       0.16327012
H        3.85728693      -4.47221362       1.57674786
H        2.73487009      -2.13336394       5.02963794
H        1.33539151      -0.70648752       3.60342563
H        3.86154094      -6.31467724       3.39900296
H        8.67721846      -6.69605483       7.91757199
H        9.80471265      -8.40668944       9.29109914
H        6.70885259     -11.24391250       8.30433491
H        5.56660918      -9.52420570       6.94493285
H        5.25153887      -4.82597253       8.32926595
H        6.80061015      -5.45932981       8.82800750
H        6.51732250      -2.93144642       8.87600507
H        7.99555620      -3.56528320       8.19220912
H        7.51599400      -2.86278553       6.02564687
H        6.97546893      -1.55258391       7.05237955
H        5.35102286      -1.78664916       5.32607426
H        4.58408493      -2.38481196       6.80308986
C        8.98872537     -10.92954950       9.68577649
C        9.54844691     -11.76825719      10.34737850
Br      10.45346930     -13.12437659      11.41713298
C       -0.00445707       0.01189536      -1.78238275
H       -0.66409135       0.67374010      -2.43557963
H        0.65740317      -0.63156657      -2.45157240
C       -0.90989263      -0.90692880      -0.91072765
C        0.90977584       0.90977584      -0.90977584
C       -0.00465871       1.77757030       0.00794375
H       -0.66225468       2.44313916      -0.64384735
H        0.64322798       2.43503045       0.67728295
C       -1.78241447       0.00034974      -0.00472694
H       -2.45427497      -0.65498947       0.64260836
H       -2.43311707       0.67328779      -0.65473579
C       -0.91132561       0.90220522       0.91563759
C       -0.01476271      -0.02253852       1.78660255
H       -0.67934791      -0.69751639       2.42135241
H        0.63392994       0.61504881       2.47327442
C        0.01484550      -1.77751727      -0.01636693
H        0.67870853      -2.42144646      -0.68295456
H       -0.62264859      -2.45592969       0.64226336
C        1.78714474       0.01002794       0.00389507
H        2.44202412       0.67113390       0.66197326
H        2.45385902      -0.65136977      -0.64189061
C        0.91606151      -0.90478549       0.90901405
