142
Properties=species:S:1:pos:R:3 pbc="F F F"
C        1.79139052       1.79139052      -1.79139052
C        1.22302916       2.50441346      -2.84405724
C        2.02829231       3.32171280      -3.64307042
C        3.40240158       3.43309920      -3.39279793
C        3.96075212       2.68688199      -2.34654170
C        3.15801122       1.87686348      -1.53939638
N        4.26259839       4.24504743      -4.17766015
C        3.84133965       5.32833565      -5.01457837
C        4.01423320       5.24666262      -6.40585581
Cl       4.81656141       3.87976483      -7.10217231
C        3.51162552       6.28298113      -7.17626964
Cl       3.63629042       6.32761046      -8.89448251
N        2.86403703       7.36099955      -6.68088688
C        2.71455127       7.45210347      -5.35391743
C        2.06252773       8.56883760      -4.84689303
C        1.88091517       8.75930256      -3.47481837
C        2.37088002       7.81427404      -2.58791222
C        3.02362737       6.68245416      -3.06850034
C        3.19218152       6.46893666      -4.45900042
H        0.15824418       2.43384605      -3.05240235
H        1.56401634       3.86138523      -4.46348633
H        5.02549212       2.75781799      -2.13587835
H        3.60672826       1.32527374      -0.71833161
H        4.90027630       3.62968827      -4.68971852
H        1.68663172       9.31924711      -5.53943587
H        1.36664965       9.64848460      -3.11790944
H        3.41637300       5.96106121      -2.35548141
C        2.20882004       8.00271742      -1.16952382
C        2.07309482       8.16053876       0.01837647
Br       1.85363861       8.41572252       1.93911076
C       -1.79139052      -1.79139052      -1.79139052
C       -3.07262356      -1.36572898      -2.13314731
C       -3.87481438      -2.16719779      -2.95106337
C       -3.40059821      -3.39423931      -3.43346119
C       -2.11944472      -3.81824639      -3.05648469
C       -1.31077080      -3.01584317      -2.24765712
N       -4.17754026      -4.24564470      -4.26212101
C       -5.31379378      -3.83768761      -5.03277227
C       -6.58573570      -4.35052691      -4.73048901
Cl      -6.76850692      -5.54203772      -3.48795392
C       -7.66299204      -3.85820032      -5.44968393
Cl      -9.28559275      -4.37915565      -5.19363499
N       -7.57287425      -2.91724707      -6.41580214
C       -6.35993576      -2.44026517      -6.72037124
C       -6.26883896      -1.48490797      -7.72451143
C       -5.04285511      -0.94756961      -8.12461138
C       -3.87893929      -1.38256328      -7.51156370
C       -3.94112341      -2.33517182      -6.49828664
C       -5.18163227      -2.86888895      -6.06959738
H       -3.45757341      -0.41534222      -1.77157694
H       -4.87360667      -1.81822480      -3.19705642
H       -1.73238461      -4.76796562      -3.41883822
H       -0.31148475      -3.35212613      -1.98672273
H       -4.39604288      -5.09273796      -3.73090224
H       -7.17939044      -1.14922988      -8.21669439
H       -5.01393996      -0.20273392      -8.91636982
H       -3.01479611      -2.67645040      -6.04166910
C       -2.60464462      -0.85315248      -7.92326419
C       -1.53742284      -0.40977093      -8.26806335
Br       0.18818453       0.30713954      -8.82557443
C       -1.79139052       1.79139052       1.79139052
C       -2.11992724       3.07849018       1.37308243
C       -2.93783673       3.88080888       2.17442992
C       -3.43340975       3.40090291       3.39398605
C       -3.06964197       2.11362162       3.81091222
C       -2.26086317       1.30489810       3.00850982
N       -4.26264566       4.17767250       4.24498780
C       -5.02130777       5.32300070       3.83994519
C       -4.71321461       6.58855691       4.36498011
Cl      -3.47861121       6.75245632       5.56743102
C       -5.42022258       7.67514241       3.87551130
Cl      -5.15571767       9.29163332       4.41103240
N       -6.37965946       7.59980702       2.92645699
C       -6.68986183       6.39299173       2.43771861
C       -7.68721392       6.31708430       1.47396014
C       -8.09257264       5.09843332       0.92403014
C       -7.49192843       3.92646168       1.35467616
C       -6.48564179       3.97340831       2.31553177
C       -6.05155521       5.20638900       2.86217439
H       -1.74801524       3.46793976       0.42853758
H       -3.17339187       4.88414799       1.83134804
H       -3.44234816       1.72207315       4.75476714
H       -2.01027271       0.30104699       3.33901391
H       -3.73636117       4.38549215       5.09782977
H       -8.16972864       7.23400018       1.14158588
H       -8.87871327       5.08142705       0.17290338
H       -6.03885568       3.04095096       2.65310897
C       -7.90932151       2.65953183       0.81220794
C       -8.25888822       1.59847808       0.35789080
Br      -8.82410803      -0.11715608      -0.37670158
C        1.79139052      -1.79139052       1.79139052
C        1.35581954      -2.15141849       3.06426182
C        2.15745757      -2.96934043       3.86627754
C        3.39459350      -3.43352509       3.40018011
C        3.82813055      -3.03829991       2.12774534
C        3.02572496      -2.22940562       1.31914050
N        4.24654663      -4.26138661       4.17737272
C        3.83483397      -5.04851218       5.30090751
C        4.33082811      -4.75448699       6.58143653
Cl       5.50689313      -3.50138071       6.79022472
C        3.83482995      -5.49042535       7.64562100
Cl       4.33570499      -5.24631444       9.27636396
N        2.90533476      -6.46547668       7.53511203
C        2.44459063      -6.76204051       6.31394103
C        1.50111251      -7.77525221       6.20189363
C        0.98118516      -8.16783792       4.96601301
C        1.42192084      -7.53771265       3.81343279
C        2.36286000      -6.51508339       3.89663848
C        2.87870447      -6.09410641       5.14730772
H        0.39755622      -1.80414334       3.44279302
H        1.80054190      -3.22976168       4.85858432
H        4.78575731      -3.38634254       1.74708861
H        3.36979660      -1.95417448       0.32636252
H        5.08550409      -3.72356461       4.41061439
H        1.16107718      -8.28074461       7.10349291
H        0.24525842      -8.96712077       4.92066450
H        2.70904558      -6.04492307       2.97894696
C        0.91055900      -7.94129358       2.52920870
C        0.48229346      -8.27929262       1.45367103
Br      -0.21017569      -8.82580847      -0.28538242
C       -0.00445707       0.01189536      -1.78238275
H       -0.66409135       0.67374010      -2.43557963
H        0.65740317      -0.63156657      -2.45157240
C       -0.90989263      -0.90692880      -0.91072765
C        0.90977584       0.90977584      -0.90977584
C       -0.00465871       1.77757030       0.00794375
H       -0.66225468       2.44313916      -0.64384735
H        0.64322798       2.43503045       0.67728295
C       -1.78241447       0.00034974      -0.00472694
H       -2.45427497      -0.65498947       0.64260836
H       -2.43311707       0.67328779      -0.65473579
C       -0.91132561       0.90220522       0.91563759
C       -0.01476271      -0.02253852       1.78660255
H       -0.67934791      -0.69751639       2.42135241
H        0.63392994       0.61504881       2.47327442
C        0.01484550      -1.77751727      -0.01636693
H        0.67870853      -2.42144646      -0.68295456
H       -0.62264859      -2.45592969       0.64226336
C        1.78714474       0.01002794       0.00389507
H        2.44202412       0.67113390       0.66197326
H        2.45385902      -0.65136977      -0.64189061
C        0.91606151      -0.90478549       0.90901405
