113
Properties=species:S:1:pos:R:3 pbc="F F F"
C        0.00000000       0.00000000       0.00000000
C        0.88148649       0.88148649      -0.88148649
C        0.31312513       1.59450943      -1.93415321
C        1.11838829       2.41180878      -2.73316639
C        2.49249755       2.52319517      -2.48289390
C        3.05084809       1.77697796      -1.43663768
C        2.24810720       0.96695946      -0.62949236
N        3.35269437       3.33514340      -3.26775612
C        2.93143562       4.41843162      -4.10467434
C        3.10432918       4.33675860      -5.49595178
Cl       3.90665739       2.96986081      -6.19226829
C        2.60172149       5.37307711      -6.26636562
Cl       2.72638639       5.41770644      -7.98457849
N        1.95413301       6.45109553      -5.77098286
C        1.80464725       6.54219945      -4.44401340
C        1.15262371       7.65893357      -3.93698900
C        0.97101115       7.84939853      -2.56491435
C        1.46097599       6.90437001      -1.67800819
Br       1.24838587       7.15156988       0.18263240
C        2.11372335       5.77255013      -2.15859632
C        2.28227749       5.55903264      -3.54909639
H       -0.75165985       1.52394203      -2.14249833
H        0.65411232       2.95148120      -3.55358231
H        4.11558809       1.84791396      -1.22597433
H        2.69682424       0.41536971       0.19157242
H        3.99037227       2.71978425      -3.77981450
H        0.77672770       8.40934309      -4.62953184
H        0.45674562       8.73858058      -2.20800542
H        2.50646897       5.05115719      -1.44557738
C       -0.88148649      -0.88148649      -0.88148649
C       -0.32236908      -1.55430666      -1.96511204
C       -1.12718371      -2.37175071      -2.76442905
C       -2.49151155      -2.52341012      -2.48366496
C       -3.04159134      -1.81701036      -1.40586203
C       -2.23891765      -1.00710340      -0.59853797
N       -3.35100390      -3.33721985      -3.26737014
C       -2.92451639      -4.38899491      -4.14103028
C       -3.13397307      -4.27784370      -5.52522278
Cl      -3.98641692      -2.91484020      -6.16752936
C       -2.62567053      -5.28226715      -6.33322654
Cl      -2.79200579      -5.28818796      -8.04847757
N       -1.93990729      -6.35553691      -5.88076719
C       -1.75521790      -6.47513275      -4.56050945
C       -1.06379049      -7.58726731      -4.09748849
C       -0.84345282      -7.80646007      -2.73541113
C       -1.33399601      -6.89578931      -1.81356889
Br      -1.06914079      -7.18279289       0.03461033
C       -2.02585470      -5.76923916      -2.24977594
C       -2.23416184      -5.52623419      -3.63001049
H        0.73486006      -1.45217200      -2.19746856
H       -0.67051512      -2.87956878      -3.60909193
H       -4.09870877      -1.91956865      -1.17119896
H       -2.68031041      -0.48700316       0.24669204
H       -4.01602580      -2.72567607      -3.74826915
H       -0.68713526      -8.31100779      -4.81745959
H       -0.29897627      -8.69096361      -2.41339173
H       -2.41813318      -5.07541568      -1.50965469
C       -0.88148649       0.88148649       0.88148649
C       -1.59831615       1.93113662       0.31233500
C       -2.41560073       2.73012159       1.11764115
C       -2.52317241       2.48282191       2.49259232
C       -1.77318724       1.43963659       3.05163990
C       -0.96315841       0.63250838       2.24889222
N       -3.33494366       3.26779779       3.35285244
C       -4.42118369       4.10117762       2.93218028
C       -4.34237856       5.49304584       3.10161515
Cl      -2.97524334       6.19445449       3.89908864
C       -5.38168362       6.25984051       2.59964009
Cl      -5.43006254       7.97823244       2.72037634
N       -6.46005060       5.76040660       1.95575419
C       -6.54838293       4.43287894       1.80959823
C       -7.66544842       3.92170215       1.16139571
C       -7.85311053       2.54876074       0.98345276
C       -6.90485056       1.66523037       1.47327326
Br      -7.14817052      -0.19648033       1.26563316
C       -5.77263550       2.15000814       2.12222615
C       -5.56199499       3.54139826       2.28701327
H       -1.53073855       2.13714110      -0.75309914
H       -2.95829011       3.54817396       0.65271176
H       -1.84112808       1.23131292       4.11703537
H       -0.40858677      -0.18620148       2.69823624
H       -2.71929588       3.78279796       3.98787717
H       -8.41836544       4.61159545       0.78564174
H       -8.74265504       2.18855679       0.47211979
H       -5.04864718       1.43961040       2.51494597
C        0.88148649      -0.88148649       0.88148649
C        1.30205057      -2.12455805       0.41517916
C        2.11996569      -2.92600721       1.21739056
C        2.52377347      -2.48891568       2.48589748
C        2.06814275      -1.24743044       2.94889055
C        1.25903331      -0.43905894       2.14646676
N        3.34897252      -3.26703953       3.33958184
C        4.18989065      -4.34697363       2.91767731
C        3.92511273      -5.65398307       3.35794376
Cl       2.64021309      -5.94843077       4.48014262
C        4.71570026      -6.67338497       2.85207900
Cl       4.51321812      -8.32860989       3.28684331
N        5.71786161      -6.49564026       1.96270952
C        5.98608749      -5.24909579       1.55567682
C        7.02679207      -5.06798436       0.65376986
C        7.39244707      -3.80127901       0.19159794
C        6.70627732      -2.68792331       0.64915356
Br       7.19767395      -0.96282629       0.05682311
C        5.65521646      -2.84046514       1.54918820
C        5.26188036      -4.12278049       2.00574567
H        1.00215720      -2.48017318      -0.56754987
H        2.42820839      -3.89516162       0.83580581
H        2.36874820      -0.88964284       3.93108535
H        0.93642882       0.53051385       2.51470656
H        2.79106029      -3.54890244       4.15000829
H        7.57594481      -5.93863340       0.30102442
H        8.21467806      -3.70169525      -0.51304168
H        5.14055810      -1.95273727       1.90990818
