178
Properties=species:S:1:pos:R:3 pbc="F F F"
C        1.78192288       1.78192288      -1.78192288
C        2.51307578       1.30729272      -2.83937322
C        3.23650585       2.36052188      -3.48198823
C        3.01881054       3.59515073      -2.88923543
S        1.95672292       3.44522947      -1.54070829
C        3.54006704       4.92049305      -3.22265780
O        3.59122756       5.82767748      -2.39788943
N        3.93495655       5.05223091      -4.54844549
C        4.45360704       6.20329369      -5.18251802
C        4.72842380       7.40308537      -4.52446264
C        5.21862118       8.51058289      -5.22881344
C        5.44927272       8.43652469      -6.60586445
C        5.20202694       7.22649848      -7.26230538
C        4.70309047       6.12277385      -6.55868101
C        5.93357279       9.58418458      -7.35932980
C        5.54016430      10.88716688      -7.11122964
S        6.27390304      11.94223853      -8.24775902
C        7.07388907      10.60215016      -8.94050296
N        6.81001676       9.43232694      -8.42169733
N        7.89513926      10.93399002      -9.97691757
C        8.76523326      10.04514903     -10.56371387
O        8.94715254       8.88649219     -10.20106280
C        9.54408750      10.61955182     -11.65981002
C       10.75485536      10.15801606     -12.15032307
C       11.23924283      10.93748309     -13.24303970
C       10.36400398      11.94579778     -13.55384088
Br      10.63559341      13.15724957     -14.95619560
S        9.00634350      11.99171446     -12.54367149
H        2.54139105       0.26720135      -3.14103190
H        3.89566133       2.19727511      -4.32583820
H        3.77095267       4.26093815      -5.15394812
H        4.57771060       7.52051864      -3.45632970
H        5.42890866       9.42192037      -4.67445582
H        5.38981956       7.14016933      -8.33164139
H        4.51216132       5.20608865      -7.11062541
H        4.86107753      11.26227597      -6.35928644
H        7.90022253      11.89936971     -10.26747974
H       11.26826994       9.29862604     -11.73157313
H       12.16922519      10.75038924     -13.76619975
C       -1.78192288      -1.78192288      -1.78192288
C       -1.92419711      -3.13307569      -1.60246894
C       -2.81430126      -3.69256221      -2.57215249
C       -3.31783107      -2.74009934      -3.44526629
S       -2.67489359      -1.18252162      -3.08524548
C       -4.25157611      -2.86779359      -4.56384819
O       -4.29235630      -2.04820239      -5.47623578
N       -5.08963687      -3.97255021      -4.47344588
C       -6.10770509      -4.35753880      -5.37417485
C       -6.38035673      -3.70056327      -6.57505181
C       -7.42552794      -4.12812160      -7.40436796
C       -8.21488373      -5.22651960      -7.05025852
C       -7.92512816      -5.90416223      -5.86154039
C       -6.88587458      -5.47002032      -5.02865044
C       -9.32152358      -5.66959380      -7.88596977
C      -10.15849981      -4.80784090      -8.57222012
S      -11.37485067      -5.70366812      -9.38538180
C      -10.67323721      -7.14533282      -8.79797215
N       -9.63435752      -7.01306110      -8.01662241
N      -11.31048165      -8.27352006      -9.22204514
C      -10.81662804      -9.54058342      -9.01688469
O       -9.74045756      -9.80540297      -8.48884700
C      -11.66980536     -10.59961104      -9.55403294
C      -11.28394918     -11.88643822      -9.89280709
C      -12.37008524     -12.67903354     -10.37064684
C      -13.54240158     -11.96861927     -10.35262179
Br     -15.19408805     -12.68265241     -10.87229812
S      -13.35387949     -10.37534365      -9.81250632
H       -1.42023272      -3.70020814      -0.82918344
H       -3.04663885      -4.74928704      -2.62284875
H       -5.01811410      -4.53192800      -3.63579684
H       -5.79877360      -2.84732614      -6.90845920
H       -7.59586418      -3.59368961      -8.33573106
H       -8.51593955      -6.77249317      -5.57319756
H       -6.70390678      -6.01749526      -4.10747335
H      -10.13551836      -3.72866603      -8.61845555
H      -12.14720594      -8.14930237      -9.77056367
H      -10.25998572     -12.23445356      -9.80402983
H      -12.28295237     -13.70947846     -10.69338334
C       -1.78192288       1.78192288       1.78192288
C       -2.62327263       1.29073755       2.74573155
C       -3.31720472       2.34789804       3.41391319
C       -2.96814928       3.60119621       2.93385121
S       -1.81968144       3.46660123       1.65637802
C       -3.41818766       4.93547233       3.32955791
O       -3.34202611       5.90000651       2.57476185
N       -3.90262903       5.00275578       4.63024814
C       -4.38531708       6.14222120       5.31188046
C       -4.52359331       7.40301877       4.72935973
C       -4.98642043       8.49201349       5.47958358
C       -5.32598471       8.33847484       6.82720230
C       -5.21573129       7.06971321       7.40538629
C       -4.74400079       5.98375366       6.65679088
C       -5.78384635       9.46348893       7.62975188
C       -5.28145313      10.74699019       7.51011751
S       -6.02314058      11.77181353       8.66894648
C       -6.96641192      10.45091772       9.19921255
N       -6.74723098       9.30404835       8.61276170
N       -7.83869254      10.77018350      10.19717081
C       -8.81168376       9.91092838      10.65148402
O       -9.04698512       8.79807987      10.18964255
C       -9.62917906      10.46398794      11.73028234
C      -10.90341990      10.06249250      12.09728209
C      -11.41327473      10.79730728      13.20918362
C      -10.49510211      11.71147195      13.65706858
Br     -10.78633273      12.83780204      15.12490381
S       -9.06458476      11.72518635      12.75195835
H       -2.74802766       0.23709383       2.96450282
H       -4.04863539       2.17603898       4.19410026
H       -3.84165060       4.16040482       5.18378352
H       -4.28400173       7.58392547       3.68663174
H       -5.08883267       9.45366522       4.98278696
H       -5.49009164       6.92248206       8.44905659
H       -4.66103653       5.01842897       7.14940989
H       -4.52220808      11.12153989       6.83889196
H       -7.79756570      11.71015294      10.55935334
H      -11.44296534       9.27651619      11.57898758
H      -12.39131720      10.64506136      13.64943562
C        1.78192288      -1.78192288       1.78192288
C        1.94027263      -3.12955670       1.58991240
C        2.82606787      -3.68991711       2.56303098
C        3.31042263      -2.74150404       3.45127003
S        2.65491097      -1.18700452       3.10074520
C        4.23375809      -2.87123222       4.57822758
O        4.25640346      -2.06090970       5.49948132
N        5.08429699      -3.96618682       4.48514914
C        6.09692380      -4.35000974       5.39248521
C        6.35012190      -3.70290642       6.60294349
C        7.39104064      -4.12826044       7.43871643
C        8.19555979      -5.21458871       7.08151335
C        7.92535052      -5.88266300       5.88281727
C        6.89031669      -5.45062687       5.04360178
C        9.29803713      -5.65488394       7.92416608
C       10.11870292      -4.79173080       8.62812711
S       11.33587969      -5.68334929       9.44467162
C       10.65563630      -7.12598107       8.83492482
N        9.62361689      -6.99632063       8.04410351
N       11.30026871      -8.25187068       9.25390747
C       10.82194303      -9.52177967       9.03037345
O        9.75417808      -9.79222170       8.48830776
C       11.68057887     -10.57745827       9.56541220
C       11.30478112     -11.87172933       9.88668404
C       12.39416353     -12.65795406      10.36764804
C       13.55906143     -11.93521698      10.36936424
Br      15.21266953     -12.63743766      10.89893139
S       13.35941547     -10.33839460       9.84391939
H        1.45038763      -3.69373690       0.80549978
H        3.06897477      -4.74463963       2.60516024
H        5.02739499      -4.51743137       3.64101258
H        5.75614877      -2.85933005       6.93908012
H        7.54603171      -3.60191611       8.37733703
H        8.52824038      -6.74170974       5.59168016
H        6.72372651      -5.99024108       4.11490779
H       10.08388326      -3.71340030       8.68535638
H       12.12988033      -8.12472477       9.81246688
H       10.28551778     -12.22943777       9.78351355
H       12.31452477     -13.69259062      10.67869879
C       -0.00445707       0.01189536      -1.78238275
H       -0.66409135       0.67374010      -2.43557963
H        0.65740317      -0.63156657      -2.45157240
C       -0.90989263      -0.90692880      -0.91072765
C        0.90977584       0.90977584      -0.90977584
C       -0.00465871       1.77757030       0.00794375
H       -0.66225468       2.44313916      -0.64384735
H        0.64322798       2.43503045       0.67728295
C       -1.78241447       0.00034974      -0.00472694
H       -2.45427497      -0.65498947       0.64260836
H       -2.43311707       0.67328779      -0.65473579
C       -0.91132561       0.90220522       0.91563759
C       -0.01476271      -0.02253852       1.78660255
H       -0.67934791      -0.69751639       2.42135241
H        0.63392994       0.61504881       2.47327442
C        0.01484550      -1.77751727      -0.01636693
H        0.67870853      -2.42144646      -0.68295456
H       -0.62264859      -2.45592969       0.64226336
C        1.78714474       0.01002794       0.00389507
H        2.44202412       0.67113390       0.66197326
H        2.45385902      -0.65136977      -0.64189061
C        0.91606151      -0.90478549       0.90901405
