165
Properties=species:S:1:pos:R:3 pbc="F F F"
C        0.00000000       0.00000000       0.00000000
C        0.87201886       0.87201886      -0.87201886
C        1.60317176       0.39738870      -1.92946920
C        2.32660182       1.45061786      -2.57208420
C        2.10890651       2.68524670      -1.97933141
S        1.04681890       2.53532545      -0.63080427
C        2.63016302       4.01058903      -2.31275378
O        2.68132354       4.91777346      -1.48798540
N        3.02505253       4.14232688      -3.63854147
C        3.54370302       5.29338966      -4.27261400
C        3.81851978       6.49318135      -3.61455862
C        4.30871715       7.60067887      -4.31890942
C        4.53936869       7.52662067      -5.69596042
C        4.29212291       6.31659445      -6.35240135
C        3.79318645       5.21286983      -5.64877699
C        5.02366876       8.67428055      -6.44942577
C        4.63026028       9.97726286      -6.20132562
S        5.36399902      11.03233451      -7.33785500
C        6.16398504       9.69224613      -8.03059894
N        5.90011274       8.52242292      -7.51179331
N        6.98523523      10.02408600      -9.06701355
C        7.85532923       9.13524501      -9.65380984
O        8.03724852       7.97658817      -9.29115878
C        8.63418348       9.70964780     -10.74990599
C        9.84495134       9.24811204     -11.24041904
C       10.32933881      10.02757906     -12.33313568
C        9.45409995      11.03589376     -12.64393686
S        8.09643948      11.08181044     -11.63376746
H        1.63148703      -0.64270268      -2.23112788
H        2.98575731       1.28737109      -3.41593417
H        2.86104864       3.35103413      -4.24404409
H        3.66780658       6.61061461      -2.54642568
H        4.51900463       8.51201635      -3.76455180
H        4.47991554       6.23026531      -7.42173737
H        3.60225730       4.29618463      -6.20072139
H        3.95117350      10.35237195      -5.44938241
H        6.99031851      10.98946568      -9.35757571
H       10.35836591       8.38872202     -10.82166911
H       11.25932116       9.84048522     -12.85629572
C        9.66290794      11.96730266     -13.72211898
C        9.83778463      12.74735761     -14.62509650
Br      10.12054545      14.00864050     -16.08513479
C       -0.87201886      -0.87201886      -0.87201886
C       -1.54956357      -1.97012797      -0.41033811
C       -2.29548589      -2.59568387      -1.45813412
C       -2.15903357      -1.94131287      -2.67313818
S       -1.10073112      -0.58991490      -2.52230259
C       -2.74367300      -2.22666289      -3.98316994
O       -2.23463749      -1.82677147      -5.02567344
N       -3.92513576      -2.95587932      -3.92490579
C       -4.73799113      -3.36681412      -5.00490143
C       -4.42012792      -3.15827292      -6.34785890
C       -5.29173920      -3.57334288      -7.36322336
C       -6.49678012      -4.21137474      -7.05379492
C       -6.80393329      -4.44733547      -5.70984996
C       -5.93607252      -4.02351930      -4.69524145
C       -7.42719763      -4.62648528      -8.09369217
C       -7.67040410      -3.89554876      -9.24289591
S       -8.87318946      -4.67633284     -10.18466622
C       -8.94069336      -5.92462297      -9.02151378
N       -8.17217548      -5.78856242      -7.97359105
N       -9.81699998      -6.91928040      -9.34005439
C       -9.90385058      -8.10012245      -8.64041105
O       -9.18364305      -8.42168347      -7.69966895
C      -10.91681973      -9.01865571      -9.15826184
C      -10.96422236     -10.39151538      -8.97774468
C      -12.10074772     -10.98962236      -9.59968346
C      -12.88385941     -10.04265860     -10.20741256
S      -12.26395712      -8.47294142     -10.07511884
H       -1.51572694      -2.31892535       0.61474006
H       -2.88292623      -3.49392572      -1.31221062
H       -4.29015370      -3.16014887      -3.00582430
H       -3.49683419      -2.67609855      -6.65191413
H       -4.99933295      -3.40024998      -8.39598985
H       -7.72922588      -4.95731954      -5.44537279
H       -6.22031433      -4.21507344      -3.66377554
H       -7.23543126      -2.95845896      -9.55903765
H      -10.37116432      -6.79339569     -10.17279990
H      -10.20607353     -10.93717426      -8.42550926
H      -12.32260833     -12.04985264      -9.58364113
C      -14.11363614     -10.34649377     -10.89219967
C      -15.14357415     -10.60095572     -11.46570888
Br     -16.80889680     -11.01239918     -12.39302476
C       -0.87201886       0.87201886       0.87201886
C       -2.17091009       0.57066870       1.18845087
C       -2.74371105       1.57379293       2.03179991
C       -1.85210875       2.59394012       2.32743575
S       -0.33866811       2.32566191       1.54861860
C       -2.01119572       3.79416347       3.14814663
O       -1.30357685       4.78542506       2.99808049
N       -3.00464467       3.68738475       4.11389145
C       -3.38374320       4.65545494       5.07050854
C       -2.84617743       5.94172095       5.13836135
C       -3.25619260       6.83797639       6.13413644
C       -4.21774572       6.46571902       7.07848505
C       -4.77892044       5.18732109       6.99487718
C       -4.36137055       4.28890960       6.00455312
C       -4.63743187       7.37382853       8.13611468
C       -3.77897242       8.23876136       8.79111498
S       -4.63181475       9.09023332      10.01214045
C       -6.06048459       8.27831246       9.54803306
N       -5.94706132       7.39942859       8.58783905
N       -7.15784634       8.65389355      10.26459489
C       -8.43690766       8.26188505       9.94559137
O       -8.74906358       7.58753123       8.96840065
C       -9.45663734       8.78148031      10.85561963
C      -10.80727070       8.93724529      10.58896643
C      -11.53268371       9.45310175      11.70426808
C      -10.70684845       9.64566251      12.78141961
S       -9.08988797       9.25609059      12.46603882
H       -2.69356879      -0.31081292       0.83715636
H       -3.76919013       1.54089976       2.37897268
H       -3.46713813       2.79345558       4.19553315
H       -2.10274109       6.29218610       4.42991969
H       -2.81895743       7.83337163       6.14324372
H       -5.54154861       4.88087044       7.70949916
H       -4.81388480       3.30086425       5.98441426
H       -2.72080417       8.39409544       8.63802825
H       -7.01187704       9.30597846      11.01950441
H      -11.24728038       8.69417947       9.62729719
H      -12.59711629       9.65447443      11.70451139
C      -11.16339139      10.13092646      14.05801173
C      -11.54574610      10.53733502      15.12715764
Br     -12.16398133      11.19446328      16.85587613
C        0.87201886      -0.87201886       0.87201886
C        0.39977977      -1.59224800       1.93800188
C        1.45061594      -2.32661057       2.57207737
C        2.67866151      -2.13899133       1.95583179
S        2.53509798      -1.04785811       0.62999252
C        3.99627173      -2.69557236       2.26166173
O        5.03463332      -2.14744296       1.90500611
N        3.95123182      -3.89808058       2.95660847
C        5.04194124      -4.69245865       3.37530679
C        6.38066903      -4.33253834       3.21305237
C        7.40832446      -5.18749862       3.63248236
C        7.11544582      -6.41784309       4.22866087
C        5.77468753      -6.76785386       4.41857733
C        4.74812975      -5.91637651       3.99032701
C        8.16925618      -7.33089978       4.64721913
C        9.34423093      -7.52230070       3.94231713
S       10.29766126      -8.72039328       4.71613399
C        9.10337157      -8.85429018       5.92916836
N        8.03848279      -8.11101926       5.78482692
N        9.41912096      -9.74905055       6.90816327
C        8.69036072      -9.88780701       8.06621634
O        7.72149063      -9.20267535       8.38082949
C        9.21115221     -10.91158738       8.97099767
C        8.99480745     -11.00218699      10.33648798
C        9.63176067     -12.13765645      10.92063643
C       10.28661323     -12.87722836       9.97008898
S       10.17974728     -12.21756356       8.41470654
H       -0.63493882      -1.59601742       2.25883363
H        1.29680735      -2.94264722       3.44960799
H        3.03749091      -4.29348773       3.12514823
H        6.67181163      -3.38822469       2.76481055
H        8.43684462      -4.86243071       3.49629744
H        5.52239342      -7.71386632       4.89565847
H        3.72017981      -6.23376629       4.14521721
H        9.67344059      -7.05290793       3.02657934
H       10.27012578     -10.27666155       6.79057257
H        8.40700319     -10.27484739      10.88690646
H        9.59312803     -12.38938581      11.97358827
C       10.99696332     -14.09595540      10.25941086
C       11.59188153     -15.11663929      10.50171793
Br      12.55381395     -16.76699882      10.89350797
