170
Properties=species:S:1:pos:R:3 pbc="F F F"
Cl       2.31191920       9.13793119      -3.87540492
C        2.64519732       7.68606945      -4.86443381
C        3.37755586       6.61459582      -4.06994256
O        3.73316078       6.76279094      -2.89721568
N        3.63924148       5.45424270      -4.77482107
N        3.35258181       5.30272319      -6.18872133
C        3.99392613       4.18674099      -6.58791093
C        4.90037593       3.63513421      -5.52908843
C        4.34568298       4.28792530      -4.26426779
H        5.18159899       4.62126260      -3.63492646
C        3.43441339       3.39725097      -3.41441490
C        2.61659953       2.40057366      -3.97499545
C        1.81089142       1.59262415      -3.17019558
C        1.79313651       1.79313651      -1.79313651
C        2.56407360       2.79912893      -1.21610626
C        3.37673424       3.59696107      -2.02480153
C        3.78530991       3.59285153      -7.91525841
C        4.45770211       2.42470399      -8.30254970
C        4.23557204       1.84126882      -9.55579696
C        3.33737482       2.42869243     -10.44159501
C        2.66351528       3.59202799     -10.08833837
C        2.88917347       4.16511748      -8.83238551
H        3.25583929       8.01035330      -5.71143092
H        1.68055458       7.30570832      -5.21142229
H        4.93180411       2.54379311      -5.47073169
H        5.91955918       3.99257762      -5.72293895
H        2.59189948       2.26440977      -5.05392868
H        1.19723557       0.82789937      -3.63431479
H        2.53403415       2.98258043      -0.14756445
H        3.95590452       4.40186107      -1.57678155
H        5.16386946       1.95014650      -7.62848516
H        4.76679338       0.93284905      -9.81963103
H        1.96051673       4.06403657     -10.76644845
H        2.35156776       5.07161281      -8.56044507
C        3.10421731       1.82734686     -11.72908136
C        2.90894789       1.32371995     -12.80735117
Br       2.59321376       0.50939784     -14.55082226
Cl      -7.06792250      -0.98079259      -7.27654022
C       -7.00797609      -2.20914692      -5.97857757
C       -5.59376510      -2.72110696      -5.74722219
O       -4.62178463      -2.35637889      -6.41500388
N       -5.47895225      -3.65513105      -4.73422196
N       -6.62034713      -4.19988466      -4.02379455
C       -6.16539385      -5.26630604      -3.33687817
C       -4.75264943      -5.61899816      -3.69295098
C       -4.25096483      -4.32191542      -4.32499582
H       -3.65804326      -4.56219730      -5.21754748
C       -3.39934369      -3.43575912      -3.41097645
C       -3.59087659      -3.38202815      -2.01926389
C       -2.78474257      -2.57748750      -1.21148107
C       -1.79313651      -1.79313651      -1.79313651
C       -1.60790468      -1.79805252      -3.17335158
C       -2.40977908      -2.61331255      -3.97540522
C       -6.98596716      -5.96726524      -2.34018745
C       -6.48499972      -7.06869003      -1.63126604
C       -7.25596873      -7.71751449      -0.65915460
C       -8.54629958      -7.27132433      -0.39003835
C       -9.07244491      -6.18771729      -1.08371944
C       -8.29289601      -5.54355645      -2.05022400
H       -7.66033132      -3.03075639      -6.28653580
H       -7.39140982      -1.73566524      -5.07061012
H       -4.13551883      -5.95536911      -2.85544097
H       -4.77247946      -6.42107789      -4.44151841
H       -4.39063563      -3.95917674      -1.56042556
H       -2.95453967      -2.56477934      -0.14013072
H       -0.85785791      -1.16772362      -3.63859749
H       -2.28426732      -2.59417817      -5.05610166
H       -5.48185855      -7.43494973      -1.82569284
H       -6.83394558      -8.56151495      -0.12381293
H      -10.07651784      -5.82686466      -0.88761926
H       -8.70945033      -4.69089239      -2.58328291
C       -9.33886972      -7.93452938       0.61275358
C      -10.00264722      -8.48996360       1.45259181
Br     -11.07591929      -9.38805377       2.81053920
Cl      -9.07837853       4.10751883       2.13935795
C       -7.60682161       5.03463538       2.55424359
C       -6.58797967       4.18007165       3.29404292
O       -6.78704138       3.00197478       3.60415125
N       -5.41456040       4.83572090       3.61802396
N       -5.20655083       6.25231914       3.38515637
C       -4.10058783       6.59156981       4.07642041
C       -3.61574393       5.48502093       4.96383370
C       -4.29068807       4.26238126       4.34480673
H       -4.67313785       3.61748441       5.14716579
C       -3.39795572       3.41316427       3.43495927
C       -2.35581795       3.96604970       2.67030099
C       -1.54784090       3.16117200       1.86469826
C       -1.79313651       1.79313651       1.79313651
C       -2.84351754       1.22569220       2.51009906
C       -3.64149790       2.03388388       3.32311507
C       -3.45625249       7.90397055       3.93319681
C       -2.29964144       8.22852045       4.65679390
C       -1.66774027       9.46771109       4.49718646
C       -2.19437504      10.40238601       3.61090121
C       -3.34500179      10.11171581       2.88716403
C       -3.96677956       8.86935128       3.05054562
H       -7.92360086       5.87155194       3.18247071
H       -7.18234451       5.40015349       1.61518719
H       -2.52865319       5.38829496       5.02938076
H       -4.00128115       5.65713510       5.97665949
H       -2.18321934       5.03990948       2.68710911
H       -0.74758305       3.61889009       1.29297660
H       -3.06113013       0.16564574       2.43740316
H       -4.48017034       1.59476576       3.85961105
H       -1.87215035       7.51556735       5.35478343
H       -0.76981459       9.68252027       5.06693860
H       -3.76992143      10.82851755       2.19256278
H       -4.86283278       8.64659049       2.47420236
C       -1.54307170      11.67552844       3.44204538
C       -0.99760515      12.74178524       3.30062862
Br      -0.11563188      14.46583229       3.07196969
Cl       2.73671967      -3.36678847       9.22174718
C        3.99001167      -3.25427854       7.95141036
C        3.53149848      -3.88562603       6.64496974
O        2.44000298      -4.44552220       6.50764222
N        4.44938178      -3.80483465       5.61408883
N        5.78816150      -3.27258540       5.78327944
C        6.47545079      -3.61676477       4.67636249
C        5.71122585      -4.55825237       3.79512035
C        4.27604989      -4.34763996       4.27418622
H        3.77306344      -5.32137553       4.34334906
C        3.42097589      -3.43050371       3.39459966
C        3.96669694      -2.35851474       2.66695696
C        3.16222620      -1.55223336       1.85925159
C        1.79313651      -1.79313651       1.79313651
C        1.22103921      -2.82413036       2.53413921
C        2.03222603      -3.63459026       3.33168056
C        7.81592037      -3.08938142       4.38811807
C        8.50594482      -3.45556149       3.22344948
C        9.77039670      -2.92891419       2.93332693
C       10.36290641      -2.02987882       3.81487703
C        9.70633244      -1.65592604       4.98162316
C        8.44158556      -2.18444520       5.26064571
H        4.87526933      -3.77247645       8.32987773
H        4.20244306      -2.19194826       7.80329387
H        5.83489351      -4.38945667       2.72197872
H        6.03668213      -5.58270685       4.01568677
H        5.02866593      -2.13637183       2.74520017
H        3.61651655      -0.73769342       1.30523977
H        0.15112682      -3.00063542       2.51241679
H        1.58052590      -4.42083835       3.93318290
H        8.06379162      -4.15638888       2.52232063
H       10.27242161      -3.22770536       2.01914650
H       10.15341614      -0.95703492       5.68055069
H        7.93079669      -1.88039676       6.17243218
C       11.66127044      -1.48366412       3.51571096
C       12.74865032      -1.02620931       3.26515938
Br      14.50685162      -0.28654357       2.86003866
C       -0.00445707       0.01189536      -1.78238275
H       -0.66409135       0.67374010      -2.43557963
H        0.65740317      -0.63156657      -2.45157240
C       -0.90989263      -0.90692880      -0.91072765
C        0.90977584       0.90977584      -0.90977584
C       -0.00465871       1.77757030       0.00794375
H       -0.66225468       2.44313916      -0.64384735
H        0.64322798       2.43503045       0.67728295
C       -1.78241447       0.00034974      -0.00472694
H       -2.45427497      -0.65498947       0.64260836
H       -2.43311707       0.67328779      -0.65473579
C       -0.91132561       0.90220522       0.91563759
C       -0.01476271      -0.02253852       1.78660255
H       -0.67934791      -0.69751639       2.42135241
H        0.63392994       0.61504881       2.47327442
C        0.01484550      -1.77751727      -0.01636693
H        0.67870853      -2.42144646      -0.68295456
H       -0.62264859      -2.45592969       0.64226336
C        1.78714474       0.01002794       0.00389507
H        2.44202412       0.67113390       0.66197326
H        2.45385902      -0.65136977      -0.64189061
C        0.91606151      -0.90478549       0.90901405
