162
Properties=species:S:1:pos:R:3 pbc="F F F"
Cl       2.31191920       9.13793119      -3.87540492
C        2.64519732       7.68606945      -4.86443381
C        3.37755586       6.61459582      -4.06994256
O        3.73316078       6.76279094      -2.89721568
N        3.63924148       5.45424270      -4.77482107
N        3.35258181       5.30272319      -6.18872133
C        3.99392613       4.18674099      -6.58791093
C        4.90037593       3.63513421      -5.52908843
C        4.34568298       4.28792530      -4.26426779
H        5.18159899       4.62126260      -3.63492646
C        3.43441339       3.39725097      -3.41441490
C        2.61659953       2.40057366      -3.97499545
C        1.81089142       1.59262415      -3.17019558
C        1.79313651       1.79313651      -1.79313651
C        2.56407360       2.79912893      -1.21610626
C        3.37673424       3.59696107      -2.02480153
C        3.78530991       3.59285153      -7.91525841
C        4.45770211       2.42470399      -8.30254970
C        4.23557204       1.84126882      -9.55579696
C        3.33737482       2.42869243     -10.44159501
Br       3.03130082       1.63928514     -12.13172323
C        2.66351528       3.59202799     -10.08833837
C        2.88917347       4.16511748      -8.83238551
H        3.25583929       8.01035330      -5.71143092
H        1.68055458       7.30570832      -5.21142229
H        4.93180411       2.54379311      -5.47073169
H        5.91955918       3.99257762      -5.72293895
H        2.59189948       2.26440977      -5.05392868
H        1.19723557       0.82789937      -3.63431479
H        2.53403415       2.98258043      -0.14756445
H        3.95590452       4.40186107      -1.57678155
H        5.16386946       1.95014650      -7.62848516
H        4.76679338       0.93284905      -9.81963103
H        1.96051673       4.06403657     -10.76644845
H        2.35156776       5.07161281      -8.56044507
Cl      -4.45162158      -1.90619156      -8.96744218
C       -5.28266426      -2.43711719      -7.47591913
C       -4.34353280      -3.18093355      -6.53762790
O       -3.16344276      -3.42153923      -6.80818542
N       -4.92310228      -3.59325682      -5.35194616
N       -6.33697171      -3.44212417      -5.06493045
C       -6.58671826      -4.20170948      -3.98015031
C       -5.41599042      -5.05455751      -3.59405064
C       -4.25985933      -4.34325311      -4.29476363
H       -3.59734288      -5.09295087      -4.74749429
C       -3.41135654      -3.43563461      -3.39908812
C       -3.94711414      -2.75049470      -2.29455979
C       -3.14211532      -1.94504205      -1.48655377
C       -1.79313651      -1.79313651      -1.79313651
C       -1.24555235      -2.42956926      -2.90418718
C       -2.05299977      -3.24306237      -3.70243470
C       -7.87041531      -4.15564948      -3.26735506
C       -8.10140278      -4.94917489      -2.13437813
C       -9.31347558      -4.88249491      -1.43666733
C      -10.31479100      -4.02013129      -1.87273997
Br     -11.94968405      -3.92394647      -0.92867867
C      -10.11730738      -3.22845581      -2.99811845
C       -8.90137876      -3.29922579      -3.68607191
H       -6.10341984      -3.09074230      -7.78346137
H       -5.67090552      -1.53901790      -6.98776177
H       -5.26170854      -5.16711366      -2.51750671
H       -5.55859630      -6.05514072      -4.02133873
H       -5.00890214      -2.82950999      -2.07182579
H       -3.58586106      -1.43601222      -0.63757646
H       -0.20248225      -2.29334099      -3.16835579
H       -1.63142635      -3.71604799      -4.58707281
H       -7.33527084      -5.63009854      -1.77713175
H       -9.45535535      -5.50464826      -0.55926985
H      -10.88698723      -2.55122881      -3.35278571
H       -8.75178789      -2.67018708      -4.56165067
Cl      -4.03337698       9.09877367       2.19310467
C       -3.67249190       7.98152358       3.54168510
C       -4.20514816       6.58108156       3.27586452
O       -4.84778618       6.27929078       2.26609044
N       -3.93200866       5.66315591       4.27314069
N       -3.29682976       6.01955452       5.52764205
C       -3.45824547       4.96251083       6.34782176
C       -4.37081057       3.92224382       5.77154418
C       -4.34674223       4.26748184       4.28365200
H       -5.36530579       4.19234260       3.88013965
C       -3.42767357       3.39396446       3.42444123
C       -2.23949646       2.83076270       3.92190948
C       -1.43289732       2.02325919       3.11755464
C       -1.79313651       1.79313651       1.79313651
C       -2.94458476       2.37068010       1.26404392
C       -3.75363617       3.16842397       2.07643671
C       -2.78026941       4.86569351       7.64745694
C       -2.95722107       3.74968417       8.47805056
C       -2.28691747       3.64305164       9.70266872
C       -1.43254390       4.66182251      10.11329584
Br      -0.52176683       4.51711796      11.76342440
C       -1.24497035       5.78408917       9.31482211
C       -1.91600352       5.87952453       8.09114841
H       -4.14172447       8.39944630       4.43645275
H       -2.58529909       7.95666198       3.65572413
H       -4.08072971       2.88834164       5.97725757
H       -5.37750580       4.07820231       6.17936764
H       -1.92793156       3.03927032       4.94303606
H       -0.52623536       1.59831855       3.53489583
H       -3.21757051       2.22159874       0.22500978
H       -4.63696830       3.64331336       1.65426549
H       -3.61993525       2.94377094       8.17879493
H       -2.44078434       2.76189013      10.31659900
H       -0.58348200       6.58815243       9.61936733
H       -1.75750573       6.75790012       7.46821979
Cl       9.14920875      -2.35123164       3.82481493
C        7.98145221      -3.67487220       3.53937617
C        6.60671826      -3.35009546       4.10528053
O        6.35529964      -2.31268668       4.72518108
N        5.65133451      -4.32628391       3.89068683
N        5.95020999      -5.60965628       3.28416007
C        4.87456128      -6.39159914       3.50241764
C        3.88070039      -5.75639520       4.42750297
C        4.26944508      -4.28126279       4.34716819
H        4.23791653      -3.84529280       5.35457871
C        3.39409250      -3.42340326       3.42858350
C        2.77981885      -3.93861048       2.27373930
C        1.97224895      -3.13422564       1.46723656
C        1.79313651      -1.79313651       1.79313651
C        2.42155179      -1.24787732       2.90987967
C        3.21920604      -2.05991783       3.71937298
C        4.71796686      -7.70734988       2.86810312
C        3.58357491      -8.49741074       3.10397015
C        3.41965842      -9.73768099       2.47529842
C        4.39880210     -10.20498092       1.60387925
Br       4.17667674     -11.87639524       0.74923721
C        5.53815541      -9.44752161       1.35820461
C        5.69087933      -8.20782732       1.98796982
H        8.38667561      -4.56766137       4.02328655
H        7.91962431      -3.82060458       2.45745630
H        2.83263547      -5.93867980       4.17501363
H        4.05538567      -6.13850178       5.44118829
H        2.94792439      -4.97456336       1.98775018
H        1.50720200      -3.56521686       0.58703088
H        2.31216255      -0.19702422       3.15499226
H        3.73357974      -1.62634235       4.57462506
H        2.80783711      -8.15369352       3.78097050
H        2.52567410     -10.31922288       2.67437648
H        6.31192436      -9.79642968       0.68264772
H        6.58220684      -7.61734809       1.78407070
C       -0.00445707       0.01189536      -1.78238275
H       -0.66409135       0.67374010      -2.43557963
H        0.65740317      -0.63156657      -2.45157240
C       -0.90989263      -0.90692880      -0.91072765
C        0.90977584       0.90977584      -0.90977584
C       -0.00465871       1.77757030       0.00794375
H       -0.66225468       2.44313916      -0.64384735
H        0.64322798       2.43503045       0.67728295
C       -1.78241447       0.00034974      -0.00472694
H       -2.45427497      -0.65498947       0.64260836
H       -2.43311707       0.67328779      -0.65473579
C       -0.91132561       0.90220522       0.91563759
C       -0.01476271      -0.02253852       1.78660255
H       -0.67934791      -0.69751639       2.42135241
H        0.63392994       0.61504881       2.47327442
C        0.01484550      -1.77751727      -0.01636693
H        0.67870853      -2.42144646      -0.68295456
H       -0.62264859      -2.45592969       0.64226336
C        1.78714474       0.01002794       0.00389507
H        2.44202412       0.67113390       0.66197326
H        2.45385902      -0.65136977      -0.64189061
C        0.91606151      -0.90478549       0.90901405
