157
Properties=species:S:1:pos:R:3 pbc="F F F"
C        0.00000000       0.00000000       0.00000000
O        2.40360098       5.42910367      -5.68497511
C        3.53564728       5.79086855      -5.38576435
O        4.12984521       5.55525040      -4.18176127
C        3.31028360       4.85660005      -3.24402634
C        3.37329395       3.33625533      -3.38735790
O        4.13896726       2.78101989      -4.17376157
C        2.49036970       2.50791909      -2.50178843
C        2.57626054       1.10926754      -2.58623935
C        1.77412052       0.29794394      -1.77739027
C        0.88131562       0.88131562      -0.88131562
C        0.78716073       2.26747012      -0.78469484
C        1.59162350       3.08013898      -1.59137743
C        4.43846031       6.61465418      -6.27328094
S        3.79738868       8.31781826      -6.42743614
C        4.38083270       9.00333423      -4.87900905
C        5.72748039       9.40165633      -4.81464133
C        6.27235321       9.98328204      -3.65768583
C        7.71622872      10.40074756      -3.65679296
C        5.43893916      10.15345757      -2.54708712
Br       6.06842945      10.91031455      -0.92250896
C        4.09286235       9.77599063      -2.60553539
C        3.54636903       9.19824336      -3.76559890
C        2.07168752       8.89862803      -3.77912614
H        2.27380802       5.20444594      -3.31404772
H        3.68886330       5.11593848      -2.25086320
H        3.26954861       0.64145672      -3.28390380
H        1.85281565      -0.78438802      -1.85603588
H        0.09005794       2.72625183      -0.08667324
H        1.48644096       4.15551700      -1.48326213
H        4.45738235       6.14581935      -7.26230115
H        5.46695205       6.61023340      -5.89855291
H        6.36241267       9.27370916      -5.69065073
H        8.17225922      10.26906563      -4.64405992
H        8.28776524       9.79691725      -2.94518892
H        7.81100380      11.46128034      -3.40154190
H        3.45369871       9.94541749      -1.74042260
H        1.52461972       9.74485095      -4.20673031
H        1.70023118       8.72641044      -2.76254707
H        1.83877025       7.99442501      -4.34634917
O       -6.47392410      -2.86901254      -4.17474312
C       -6.04576958      -3.64919203      -5.01731857
O       -4.73379607      -3.76393129      -5.36912952
C       -3.85768361      -2.86531981      -4.68790657
C       -3.37115307      -3.38883902      -3.33691509
O       -3.63768224      -4.52056447      -2.93550201
C       -2.50728387      -2.49008674      -2.50270661
C       -2.01044448      -2.97768661      -1.28363633
C       -1.19880819      -2.17540731      -0.47523922
C       -0.88131562      -0.88131562      -0.88131562
C       -1.36479862      -0.38506891      -2.08945817
C       -2.17442742      -1.18817749      -2.90053500
C       -6.90417915      -4.56742818      -5.85478811
S       -7.88053476      -3.60260229      -7.05950602
C       -6.62941375      -3.32337823      -8.31038399
C       -6.36392284      -4.37433276      -9.20552244
C       -5.42678119      -4.24267603     -10.24386386
C       -5.19825524      -5.39879694     -11.17671707
C       -4.74272493      -3.02874746     -10.36801147
Br      -3.44011005      -2.74085331     -11.72028961
C       -5.01102472      -1.97032516      -9.49303848
C       -5.95285746      -2.10072338      -8.45663045
C       -6.24699984      -0.89052914      -7.61191272
H       -4.33635541      -1.88712016      -4.56882612
H       -2.98339184      -2.73892795      -5.33334519
H       -2.25280260      -3.98731692      -0.95478961
H       -0.82270983      -2.56869170       0.46693801
H       -1.11962364       0.62560890      -2.40896828
H       -2.52906692      -0.76194453      -3.83420863
H       -7.58505991      -5.09848697      -5.18195598
H       -6.29425602      -5.32620105      -6.35528129
H       -6.91202925      -5.31041072      -9.10433259
H       -5.89120488      -6.22215666     -10.97202323
H       -4.18116563      -5.78624856     -11.06245721
H       -5.36352098      -5.09477848     -12.21552658
H       -4.48989298      -1.02355464      -9.62609119
H       -7.10267937      -0.34767375      -8.02584787
H       -5.38632769      -0.21240315      -7.59045785
H       -6.45471370      -1.15291130      -6.57191942
O       -5.79711184       5.30273260       2.41783532
C       -5.99061610       5.10923850       3.61242557
O       -5.54165426       4.02273616       4.30246647
C       -4.82651032       3.07323970       3.51115997
C       -3.33853753       3.39127284       3.36709682
O       -2.80451673       4.32407308       3.96515891
C       -2.50910073       2.49967858       2.49129790
C       -1.13119594       2.74901034       2.39156114
C       -0.31916218       1.94127568       1.58901687
C       -0.88131562       0.88131562       0.88131562
C       -2.24629423       0.62033914       0.97269233
C       -3.05912521       1.42607914       1.77793556
C       -6.81360143       6.00574683       4.50704718
S       -8.58324085       5.88836135       4.07104088
C       -9.00051856       4.35865110       4.90400631
C       -9.23562305       4.41948678       6.28866822
C       -9.60375027       3.28243977       7.02713104
C       -9.85487478       3.41589747       8.50299698
C       -9.72508952       2.06429837       6.35009597
Br     -10.19805891       0.45735060       7.24584345
C       -9.50974199       1.99538214       4.96926423
C       -9.14600746       3.13485984       4.22934399
C       -9.01607407       2.99691566       2.73645197
H       -5.29331790       2.97393240       2.52505139
H       -4.91585877       2.11265535       4.02715085
H       -0.68030035       3.57555478       2.93905401
H        0.74680947       2.14885570       1.52241728
H       -2.68866694      -0.20603212       0.42034820
H       -4.11749434       1.18690225       1.82082349
H       -6.47304814       7.03525808       4.35719665
H       -6.64813103       5.76550580       5.56210153
H       -9.14860018       5.37681666       6.80135571
H       -9.79796076       4.46094212       8.82648189
H       -9.10703065       2.85290748       9.06993328
H      -10.85798862       3.05833182       8.75750560
H       -9.63949341       1.04365934       4.45638606
H       -9.96463460       3.25605339       2.25551300
H       -8.76031207       1.96730487       2.46157175
H       -8.22146983       3.62740669       2.33066791
O        2.53566981      -6.13889141       4.84311854
C        3.76011591      -6.15725581       4.79490846
O        4.50806988      -5.48170725       3.87707976
C        3.74651773      -4.74334897       2.92104329
C        3.36020594      -3.34237482       3.39432643
O        3.76082182      -2.87408789       4.45883900
C        2.49274637      -2.50995698       2.49737387
C        2.17358901      -1.20227032       2.89590809
C        1.37036046      -0.38967997       2.08941429
C        0.88131562      -0.88131562       0.88131562
C        1.19187923      -2.17569925       0.47174721
C        1.99811315      -2.98846923       1.27655753
C        4.64458594      -6.98172807       5.70008143
S        4.47540746      -8.75776481       5.30947080
C        5.53763293      -8.85489414       3.87064890
C        6.92378435      -8.92629948       4.09369421
C        7.83864522      -9.04098099       3.03369487
C        9.30784268      -9.12711880       3.33880776
C        7.33788743      -9.07371109       1.72788533
Br       8.47891177      -9.20725894       0.21508225
C        5.95921825      -9.02014045       1.49502966
C        5.04323824      -8.91029010       2.55668296
C        3.57463716      -8.94471558       2.23008895
H        2.85399516      -5.30813220       2.63017433
H        4.38267525      -4.63547250       2.03751723
H        2.54891460      -0.80710796       3.83888657
H        1.13204883       0.62121644       2.41363112
H        0.81058383      -2.56309748      -0.47069830
H        2.21590174      -3.99039531       0.91892304
H        4.32514158      -6.80779387       6.73256742
H        5.68783618      -6.65772455       5.63017762
H        7.29942312      -8.91112541       5.11622403
H        9.49103740      -9.17665798       4.41768939
H        9.82984282      -8.24525984       2.95476875
H        9.74035071     -10.03264503       2.90083030
H        5.58862978      -9.07811184       0.47279718
H        3.20185364      -9.97132920       2.30301815
H        3.39403228      -8.58408684       1.21106957
H        2.98918881      -8.30030065       2.89005497
