165
Properties=species:S:1:pos:R:3 pbc="F F F"
C        0.00000000       0.00000000       0.00000000
O        2.40360098       5.42910367      -5.68497511
C        3.53564728       5.79086855      -5.38576435
O        4.12984521       5.55525040      -4.18176127
C        3.31028360       4.85660005      -3.24402634
C        3.37329395       3.33625533      -3.38735790
O        4.13896726       2.78101989      -4.17376157
C        2.49036970       2.50791909      -2.50178843
C        2.57626054       1.10926754      -2.58623935
C        1.77412052       0.29794394      -1.77739027
C        0.88131562       0.88131562      -0.88131562
C        0.78716073       2.26747012      -0.78469484
C        1.59162350       3.08013898      -1.59137743
C        4.43846031       6.61465418      -6.27328094
S        3.79738868       8.31781826      -6.42743614
C        4.38083270       9.00333423      -4.87900905
C        5.72748039       9.40165633      -4.81464133
C        6.27235321       9.98328204      -3.65768583
C        7.71622872      10.40074756      -3.65679296
C        5.43893916      10.15345757      -2.54708712
C        4.09286235       9.77599063      -2.60553539
C        3.54636903       9.19824336      -3.76559890
C        2.07168752       8.89862803      -3.77912614
H        2.27380802       5.20444594      -3.31404772
H        3.68886330       5.11593848      -2.25086320
H        3.26954861       0.64145672      -3.28390380
H        1.85281565      -0.78438802      -1.85603588
H        0.09005794       2.72625183      -0.08667324
H        1.48644096       4.15551700      -1.48326213
H        4.45738235       6.14581935      -7.26230115
H        5.46695205       6.61023340      -5.89855291
H        6.36241267       9.27370916      -5.69065073
H        8.17225922      10.26906563      -4.64405992
H        8.28776524       9.79691725      -2.94518892
H        7.81100380      11.46128034      -3.40154190
H        3.45369871       9.94541749      -1.74042260
H        1.52461972       9.74485095      -4.20673031
H        1.70023118       8.72641044      -2.76254707
H        1.83877025       7.99442501      -4.34634917
C        5.91613596      10.72720705      -1.31554551
C        6.31578827      11.20772224      -0.28412940
Br       6.96199227      11.98467465       1.38358321
O       -6.58417900      -3.16403201      -3.76946874
C       -6.17949063      -3.79149231      -4.74129724
O       -4.91496767      -3.70832218      -5.24356703
C       -4.06482560      -2.78902767      -4.55705673
C       -3.36511224      -3.39229158      -3.33950336
O       -3.45779713      -4.58451605      -3.05143554
C       -2.50858205      -2.49080615      -2.50068902
C       -1.81850236      -3.04317742      -1.41008764
C       -1.00625020      -2.24042609      -0.60277844
C       -0.88131562      -0.88131562      -0.88131562
C       -1.55782539      -0.31997399      -1.96152631
C       -2.36833105      -1.12301264      -2.77179622
C       -7.02892978      -4.71119405      -5.58627161
S       -8.24184378      -3.74737172      -6.55342757
C       -7.18841463      -3.18600051      -7.88876084
C       -6.92144843      -4.09466302      -8.92766660
C       -6.13629401      -3.73973130     -10.03729577
C       -5.89904158      -4.75258051     -11.12214715
C       -5.60693262      -2.44578488     -10.08676636
C       -5.87991116      -1.52792163      -9.06655557
C       -6.67006392      -1.88197013      -7.95817725
C       -6.98853817      -0.81420105      -6.94670248
H       -4.62810149      -1.89437804      -4.26982215
H       -3.29365165      -2.48918098      -5.27283234
H       -1.90924632      -4.10418383      -1.18147898
H       -0.47892984      -2.68450695       0.23897328
H       -1.46328633       0.74140140      -2.18109808
H       -2.87699478      -0.64474003      -3.60348527
H       -7.56237026      -5.38995294      -4.91317967
H       -6.40583944      -5.33239156      -6.23750735
H       -7.34933611      -5.09552302      -8.88191343
H       -6.46949098      -5.67085139     -10.94504240
H       -4.83984350      -5.02433071     -11.16569719
H       -6.22037495      -4.36071185     -12.09273924
H       -5.48364360      -0.51633935      -9.13955585
H       -7.94139231      -0.33733273      -7.19747596
H       -6.20961736      -0.04332837      -6.93624296
H       -7.03960727      -1.21017659      -5.92976057
C       -4.77983523      -2.00074967     -11.17830361
C       -4.08714116      -1.62803269     -12.09246606
Br      -2.96711344      -1.02538085     -13.57058942
O       -3.84575172       6.56924185       3.10268619
C       -4.79430058       6.15751810       3.76046150
O       -5.26983165       4.88075344       3.71627179
C       -4.58475553       4.02547941       2.80067506
C       -3.33892069       3.36628165       3.39170484
O       -3.02695948       3.49192474       4.57486449
C       -2.50108219       2.50835689       2.49063814
C       -1.38346733       1.85486826       3.03343183
C       -0.57594763       1.04272058       2.23078652
C       -0.88131562       0.88131562       0.88131562
C       -1.98843750       1.52126769       0.32962050
C       -2.79887106       2.33161132       1.13265753
C       -5.63773837       7.00862827       4.68002880
S       -6.65268597       8.17818545       3.71177166
C       -7.97607110       7.08345941       3.20364546
C       -8.98858963       6.81421762       4.14097080
C      -10.08786723       5.99720002       3.82825382
C      -11.14469244       5.75898404       4.87009276
C      -10.15379845       5.43804236       2.54764305
C       -9.16030183       5.71267810       1.60140843
C       -8.06240573       6.53464441       1.91316115
C       -7.08194251       6.85120571       0.81629348
H       -4.32986715       4.57473750       1.88769704
H       -5.28947945       3.23229432       2.53389120
H       -1.13376636       1.97433113       4.08681165
H        0.28692376       0.54403685       2.66735042
H       -2.22902913       1.39820123      -0.72424734
H       -3.65201578       2.81110237       0.66210193
H       -4.96205585       7.57174591       5.33170110
H       -6.26109871       6.38549054       5.32914910
H       -8.93052060       7.26530749       5.13094446
H      -10.96033708       6.35359307       5.77145462
H      -11.15855337       4.70543657       5.16588146
H      -12.13058531       6.05012927       4.49311146
H       -9.24654743       5.29235603       0.60063534
H       -7.36437171       7.78742288       0.32440640
H       -7.07092973       6.05563561       0.06262336
H       -6.05797104       6.93338726       1.18818612
C      -11.23602715       4.57748109       2.14538027
C      -12.14239369       3.85676103       1.80848520
Br     -13.60791172       2.69141764       1.26375435
O        3.41519659      -3.48955092       6.61293225
C        3.92438513      -4.54210263       6.24579242
O        3.69043131      -5.13540311       5.04102246
C        2.75844297      -4.44166329       4.21080374
C        3.39416177      -3.34206932       3.36067609
O        4.60924221      -3.15314327       3.33136324
C        2.49156873      -2.49918623       2.50932226
C        3.06737177      -1.52040091       1.68399474
C        2.26415449      -0.71388977       0.87141047
C        0.88131562      -0.88131562       0.88131562
C        0.29625328      -1.85009101       1.69298140
C        1.09936408      -2.65970772       2.50406810
C        4.84394654      -5.39327093       7.08917798
S        3.91542233      -6.17127257       8.45594817
C        3.15805318      -7.53275696       7.57236584
C        3.95311548      -8.66547224       7.32519032
C        3.44243263      -9.79934562       6.67154282
C        4.33984352     -10.98442239       6.44950334
C        2.10728407      -9.77764063       6.25455916
C        1.30210731      -8.66219583       6.51008522
C        1.81225078      -7.52908415       7.16887636
C        0.86152129      -6.40549997       7.48242044
H        1.94270820      -4.03262000       4.81697349
H        2.33541737      -5.18819102       3.53205658
H        4.14720649      -1.37915914       1.66854351
H        2.72665898       0.04043022       0.23823476
H       -0.78355239      -1.98263368       1.70390173
H        0.60208589      -3.40254142       3.12059277
H        5.61889797      -4.74151177       7.50509312
H        5.35359720      -6.14456226       6.47757889
H        4.98806482      -8.67334114       7.66536660
H        5.31587932     -10.84314330       6.92636214
H        4.51325642     -11.13684959       5.37976540
H        3.90073172     -11.88784398       6.88525035
H        0.25708947      -8.67789168       6.20455766
H        0.45140604      -6.53588167       8.48891328
H        0.02866582      -6.39027637       6.77024650
H        1.34110613      -5.42640908       7.41202923
C        1.50491854     -10.88902856       5.56494141
C        1.00043741     -11.81981595       4.98738655
Br       0.18473409     -13.32482044       4.05352918
