197
Properties=species:S:1:pos:R:3 pbc="F F F"
C        0.00000000       0.00000000       0.00000000
C        0.88151266       0.88151266      -0.88151266
C        1.01685470       0.58656079      -2.23575375
C        1.82265579       1.39437754      -3.03979336
C        2.48725887       2.50255655      -2.49424396
C        2.35390981       2.78608287      -1.12949499
C        1.54768111       1.97347285      -0.32439196
C        3.32739218       3.33090806      -3.40538583
O        3.76849419       2.79262389      -4.42052752
C        3.60196434       4.77496082      -3.01369665
S        3.82456896       5.85595818      -4.46064420
C        5.30392822       5.12697912      -5.14849925
N        6.31035364       4.92819610      -4.25349538
C        7.43896981       4.36424486      -4.71891553
C        8.48615451       4.09801953      -3.84560711
C        9.67386667       3.51578062      -4.28927826
C        9.82119258       3.19545318      -5.63345573
C        8.77586405       3.45649459      -6.51888761
C        7.58704925       4.02849360      -6.08495962
N        6.60258127       4.24505507      -6.97206970
C        5.44392772       4.78054067      -6.50122854
S        4.15187237       5.00378657      -7.72260532
C        4.67923452       3.75381915      -8.93284076
C        3.71254751       3.62484182     -10.09552824
O        2.51377659       3.89091855     -10.01861318
C        4.23712159       3.08711152     -11.39476906
C        3.37127981       3.05778544     -12.49934180
C        3.80798996       2.57393310     -13.73618744
C        5.11596504       2.11812582     -13.87553746
C        5.98655862       2.13345513     -12.78804881
C        5.54721014       2.61019960     -11.54747024
H        0.50403322      -0.26443395      -2.67683182
H        1.92672876       1.15970899      -4.09836551
H        2.87552056       3.61847216      -0.66551630
H        1.44780971       2.19680228       0.73537057
H        4.47340941       4.81864027      -2.35385835
H        2.73863115       5.17707796      -2.47503438
H        8.37177955       4.34777512      -2.79348926
H       10.47823474       3.31219262      -3.58676247
H       10.74179423       2.74347921      -5.99374683
H        8.88829988       3.20493107      -7.57058089
H        4.75425673       2.77481276      -8.44816581
H        5.65408943       4.07155266      -9.30789285
H        2.34625291       3.41364857     -12.40234950
H        3.12035460       2.55959858     -14.57801249
H        7.00818400       1.77560831     -12.89331908
H        6.25429394       2.58992552     -10.72338613
C        5.57212278       1.62489684     -15.14921139
C        5.95415489       1.21181757     -16.21591331
Br       6.57186850       0.54390333     -17.94068010
C       -0.88151266      -0.88151266      -0.88151266
C       -2.26736330      -0.80036990      -0.77143605
C       -3.07118106      -1.60668605      -1.57895958
C       -2.49217994      -2.48859536      -2.50328408
C       -1.09775099      -2.57136438      -2.60037229
C       -0.29343348      -1.76406762      -1.78804482
C       -3.40348408      -3.31804449      -3.34215749
O       -4.53168576      -3.54450567      -2.90545417
C       -2.87643178      -3.84649199      -4.66769805
S       -4.19200775      -4.03888324      -5.91028034
C       -5.17376847      -5.29790182      -5.10773630
N       -4.46662271      -6.36980359      -4.65561883
C       -5.15836178      -7.33668876      -4.02707966
C       -4.48694348      -8.43606169      -3.50677597
C       -5.16822486      -9.46103437      -2.84966631
C       -6.54914579      -9.38924209      -2.71171362
C       -7.23338550      -8.28940626      -3.22845449
C       -6.56279949      -7.26063452      -3.87706846
N       -7.26313746      -6.21385686      -4.34271173
C       -6.56531873      -5.21405103      -4.94632717
S       -7.54820849      -3.82415471      -5.50590107
C       -8.97032376      -4.00735668      -4.38821400
C       -9.98734263      -2.89306710      -4.55250783
O       -9.70432014      -1.76501932      -4.95396886
C      -11.40637475      -3.16561317      -4.14701426
C      -12.36840007      -2.17208683      -4.38792014
C      -13.70664610      -2.37411349      -4.03735091
C      -14.09076036      -3.57390795      -3.44496000
C      -13.14795835      -4.56790739      -3.19219682
C      -11.80656477      -4.36273233      -3.53558290
H       -2.73335934      -0.11792202      -0.06514973
H       -4.15473180      -1.54097438      -1.48909707
H       -0.61290895      -3.26263252      -3.28396755
H        0.78924268      -1.83240775      -1.86607634
H       -2.34982944      -4.79138849      -4.50469010
H       -2.17176026      -3.12571149      -5.09327174
H       -3.40632496      -8.49303690      -3.61368207
H       -4.62126371     -10.30962838      -2.44629773
H       -7.09338899     -10.18153248      -2.20409881
H       -8.31353457      -8.23031954      -3.11995774
H       -8.62932773      -4.00020413      -3.34770344
H       -9.43963836      -4.96268817      -4.63120840
H      -12.07953360      -1.23010013      -4.85261726
H      -14.43479231      -1.59084775      -4.23232561
H      -13.44470536      -5.50522208      -2.72718394
H      -11.10302375      -5.15781986      -3.30676197
C      -15.46915306      -3.78900368      -3.08807428
C      -16.62355693      -3.96914635      -2.78918249
Br     -18.49013037      -4.26042181      -2.30589974
C       -0.88151266       0.88151266       0.88151266
C       -1.15847411       2.18932236       0.49137277
C       -1.96527218       2.99303510       1.29851941
C       -2.50338482       2.48895690       2.49171765
C       -2.21159091       1.17615571       2.88174105
C       -1.40033410       0.37270120       2.07251062
C       -3.36322214       3.39363861       3.30682532
O       -3.20137374       4.60646382       3.17380804
C       -4.36584754       2.76324966       4.26152462
S       -5.84336884       3.79875982       4.49904268
C       -5.08601324       5.21994492       5.27344842
N       -4.25378722       4.92776192       6.31049599
C       -3.64430483       5.96303562       6.91478976
C       -2.75153791       5.72576037       7.95248287
C       -2.10043927       6.77230462       8.60618165
C       -2.34790443       8.08365041       8.21854666
C       -3.24077581       8.33362343       7.17684701
C       -3.88745536       7.29790967       6.51513744
N       -4.72548263       7.58749587       5.50672755
C       -5.31663464       6.54296289       4.86609940
S       -6.38793611       6.98948874       3.50083942
C       -5.67018957       8.60794591       3.08775895
C       -6.32118271       9.24026026       1.87147460
O       -6.85706883       8.59461998       0.97161951
C       -6.25569072      10.73296034       1.73035112
C       -6.93965196      11.32941415       0.65934094
C       -6.91920558      12.71614328       0.48276164
C       -6.21513682      13.51516264       1.37932885
C       -5.52494991      12.93939199       2.44372066
C       -5.53844435      11.55034420       2.61609144
H       -0.75525067       2.59446759      -0.43328716
H       -2.17870545       4.01575234       0.99034546
H       -2.58665935       0.76022243       3.81262724
H       -1.17543690      -0.64607033       2.37987485
H       -3.87970199       2.54851146       5.21769458
H       -4.73002426       1.82213559       3.83858364
H       -2.55673771       4.70001076       8.25629546
H       -1.40213096       6.56245680       9.41260208
H       -1.84954684       8.90916194       8.72031149
H       -3.43438691       9.35870257       6.87072237
H       -4.60113758       8.49836751       2.87773022
H       -5.82628786       9.25143581       3.95581126
H       -7.49539213      10.71415105      -0.04729220
H       -7.45522639      13.15678002      -0.35404074
H       -4.97194216      13.56092199       3.14424724
H       -4.97455003      11.14296338       3.45009217
C       -6.19659711      14.94447104       1.20516287
C       -6.18107010      16.14151682       1.05929886
Br      -6.15596423      18.07703861       0.82344909
C        0.88151266      -0.88151266       0.88151266
C        2.19705522      -0.50378662       1.13832741
C        3.00076428      -1.31089633       1.94516608
C        2.48909673      -2.49154687       2.50341578
C        1.16838749      -2.86927195       2.23182822
C        0.36490795      -2.06013449       1.42050348
C        3.39430035      -3.30719679       3.36218893
O        4.60659102      -3.19060418       3.18445040
C        2.76470792      -4.24238668       4.38352722
S        3.81492473      -4.47479730       5.85144931
C        5.21771243      -5.27502258       5.08667157
N        4.90337735      -6.31826035       4.27040743
C        5.92408437      -6.94203927       3.65600656
C        5.66391814      -7.98729367       2.77856934
C        6.69481328      -8.66109682       2.12301544
C        8.01350934      -8.28626593       2.35032624
C        8.28642011      -7.23715608       3.22767007
C        7.26639572      -6.55552489       3.87858185
N        7.57786548      -5.54082122       4.70101934
C        6.54811053      -4.88081886       5.29676753
S        7.02350001      -3.50843612       6.34632814
C        8.63802935      -3.12323264       5.60463245
C        9.29239860      -1.90698864       6.23353032
O        8.66388099      -0.99321579       6.76621154
C       10.78577192      -1.78449782       6.14873244
C       11.40296403      -0.71268956       6.81275345
C       12.79133844      -0.55294947       6.77382259
C       13.57124235      -1.46725416       6.07113180
C       12.97473423      -2.53276569       5.40056264
C       11.58400812      -2.68835224       5.43251963
H        2.60824442       0.41113888       0.71932556
H        4.02952738      -1.01246778       2.14280810
H        0.74600175      -3.79062641       2.62288086
H       -0.66003745      -2.35793598       1.21134288
H        2.53289787      -5.20159664       3.91141352
H        1.83307385      -3.80395726       4.75371237
H        4.63239729      -8.28110519       2.59954145
H        6.46712589      -9.47314243       1.43692150
H        8.82702270      -8.80371115       1.84828642
H        9.31728368      -6.94103886       3.40548931
H        8.51817056      -2.92454933       4.53451541
H        9.27304237      -3.99700928       5.76348329
H       10.80277468       0.00776005       7.36723636
H       13.24820147       0.28479905       7.29456325
H       13.58129437      -3.24715223       4.84866478
H       11.16009627      -3.52402614       4.88348317
C       15.00218429      -1.31041340       6.03363333
C       16.20059817      -1.17905925       6.00222835
Br      18.13833204      -0.96667072       5.95144916
