190
Properties=species:S:1:pos:R:3 pbc="F F F"
C        1.77431697       1.77431697      -1.77431697
C        1.23532354       2.25089918      -3.04362443
C        1.95841202       3.03666715      -3.86656476
C        3.27746815       3.42182293      -3.49477645
N        4.16461155       4.18960480      -4.09330319
C        5.24488114       4.24967619      -3.23689887
C        6.41840999       5.10872177      -3.56514383
S        6.81674588       6.31550787      -2.26258140
C        5.35215862       7.26648670      -2.27620014
N        4.28928910       6.91593041      -1.58494772
N        3.23103986       7.78016265      -1.79620576
C        3.54921102       8.74807438      -2.62895251
S        2.37862427       9.91305482      -3.19438119
C        1.04229225       8.78139273      -3.69913943
C        1.38963211       7.99755978      -4.92287330
C        2.24992255       6.92468977      -5.04965718
N        2.23118052       6.57303283      -6.37144173
C        2.94857878       5.58508114      -7.03508036
C        2.74510458       5.39701792      -8.34927973
C        1.76678413       6.23839769      -9.03258114
C        1.08576446       7.20188802      -8.38086519
C        1.31327101       7.41121911      -6.99182492
N        0.80471035       8.27906830      -6.14188295
S        5.17587597       8.71814020      -3.16687840
C        5.02656374       3.44433725      -2.13528406
N        3.75767519       2.94619922      -2.28020075
C        3.02272739       2.13106277      -1.42575793
H        0.22477071       1.96221720      -3.31838444
H        1.55483330       3.39438957      -4.80688995
H        6.24286017       5.64621396      -4.50402092
H        7.29651683       4.47289073      -3.71973972
H        0.15581358       9.39239539      -3.90124241
H        0.78117870       8.10873219      -2.87499167
H        2.86339140       6.40137262      -4.33082801
H        3.65356260       5.00668074      -6.44977195
H        1.59168558       6.07148860     -10.09176743
H        0.35772321       7.82673830      -8.88562633
H        5.62797907       3.23375954      -1.26348519
H        3.49785921       1.82683585      -0.50238778
C        3.44922906       4.39804471      -9.11076594
C        4.03893331       3.56140464      -9.74851063
Br       4.99243521       2.20862841     -10.77968987
C       -1.77431697      -1.77431697      -1.77431697
C       -3.00307679      -2.31957592      -1.20719445
C       -3.82891839      -3.10042992      -1.93229563
C       -3.50727749      -3.40064956      -3.28614048
N       -4.14555179      -4.10110982      -4.20085793
C       -3.38511776      -3.99863353      -5.34770492
C       -3.85710335      -4.61422140      -6.62095085
S       -3.96613119      -3.43015575      -7.99854822
C       -5.18118511      -2.34622864      -7.36743170
N       -4.87377300      -1.34555079      -6.57084343
N       -5.99844042      -0.66271483      -6.14625302
C       -7.10057192      -1.17436172      -6.65130427
S       -8.68660462      -0.61071528      -6.18874039
C       -8.50426309      -0.64281417      -4.37574715
C       -8.44417723      -2.03342426      -3.83246369
C       -7.40279740      -2.93910730      -3.88236478
N       -7.84899416      -4.07045904      -3.25620188
C       -7.20934310      -5.28992725      -3.06946993
C       -7.83775915      -6.26339530      -2.39024778
C       -9.17414767      -5.99862231      -1.86499298
C       -9.78958769      -4.81589349      -2.06303648
C       -9.12963713      -3.79034400      -2.79633391
N       -9.50850426      -2.57692327      -3.14023407
S       -6.84902673      -2.48157783      -7.73029002
C       -2.23248746      -3.27970102      -5.09399658
N       -2.32758205      -2.86594812      -3.79054499
C       -1.46563445      -2.06352275      -3.05039090
H       -3.24902790      -2.07968841      -0.17665604
H       -4.74420166      -3.50056655      -1.51134460
H       -4.83886487      -5.07907895      -6.47515122
H       -3.16540095      -5.41179054      -6.91195580
H       -9.37199975      -0.12641359      -3.95103804
H       -7.61849896      -0.07451508      -4.07188852
H       -6.41127281      -2.87766238      -4.30665685
H       -6.21786575      -5.39946706      -3.49268249
H       -9.67222134      -6.78208610      -1.30063418
H      -10.78107742      -4.61635733      -1.67265309
H       -1.40570850      -2.99287177      -5.72664354
H       -0.57834689      -1.69818169      -3.55055427
C       -7.24661903      -7.55540487      -2.15601580
C       -6.75153918      -8.63746289      -1.95984651
Br      -5.95103694     -10.38705919      -1.64265736
C       -1.77431697       1.77431697       1.77431697
C       -3.15399727       2.01222502       1.36362488
C       -3.98709458       2.77602916       2.09852019
C       -3.52177075       3.36344951       3.30884728
N       -4.12897924       4.11245765       4.20608265
C       -3.19589229       4.33835029       5.19721362
C       -3.57116299       5.09570573       6.42540687
S       -3.25022310       4.17979612       7.96481593
C       -4.32975762       2.82580051       7.73928733
N       -3.97112236       1.75598096       7.06306390
N       -5.00423242       0.84301099       6.96016487
C       -6.09040106       1.26291414       7.57292271
S       -7.59913893       0.38804904       7.49887232
C       -7.70588153       0.11707022       5.69987267
C       -7.98403398       1.37799637       4.94803483
C       -7.12984740       2.42641198       4.66801011
N       -7.86523074       3.34281001       3.96761433
C       -7.49464402       4.59130424       3.48279202
C       -8.38639657       5.31675514       2.78825052
C       -9.71669906       4.75903661       2.56202729
C      -10.06872584       3.55199773       3.04779409
C       -9.12857045       2.79064409       3.79710050
N       -9.22287133       1.61662877       4.38616150
S       -5.91866041       2.76758830       8.37464587
C       -1.98439337       3.77062867       4.85116301
N       -2.20128371       3.11685226       3.66593920
C       -1.33149869       2.33489234       2.91315707
H       -3.50721790       1.55387698       0.44427748
H       -5.01347194       2.94766926       1.79497161
H       -4.63170144       5.37011302       6.39128058
H       -2.99994627       6.02939785       6.45980316
H       -8.51976980      -0.59487355       5.52455512
H       -6.78869497      -0.35439991       5.33060750
H       -6.09057795       2.59602638       4.90898771
H       -6.48671933       4.92678441       3.69651156
H      -10.42964687       5.34084601       1.98444873
H      -11.05524188       3.13508399       2.87976197
H       -1.03214678       3.73401402       5.35906302
H       -0.32650180       2.20717799       3.29340305
C       -8.08341830       6.61961801       2.25500339
C       -7.82967399       7.71076567       1.80840892
Br      -7.41939091       9.47505914       1.08630344
C        1.77431697      -1.77431697       1.77431697
C        1.65706210      -1.64951606       3.22326900
C        2.40167316      -2.40131087       4.05865991
C        3.32218320      -3.34696538       3.52491896
N        4.13058697      -4.20577560       4.11115697
C        4.74113400      -4.90209665       3.08822556
C        5.67466915      -6.02367013       3.39393632
S        5.20465336      -7.59155035       2.59863145
C        3.66084659      -7.86703886       3.36696000
N        2.54996933      -7.33448188       2.90571601
N        1.46434619      -7.63622773       3.70683436
C        1.80605569      -8.39116561       4.72901661
S        0.67649137      -8.82098964       5.98857928
C       -0.00867243      -7.17323171       6.35826514
C        0.97719602      -6.28623120       7.04663796
C        2.07322715      -5.63374543       6.51729692
N        2.65749396      -4.96221053       7.55595059
C        3.81033578      -4.18643722       7.57196728
C        4.18463972      -3.59072031       8.71604221
C        3.35677457      -3.77667331       9.90431507
C        2.24720478      -4.54158218       9.87973070
C        1.85976296      -5.18532895       8.67122313
N        0.85222292      -5.98482432       8.38861436
S        3.45829988      -8.84453621       4.75805848
C        4.34113190      -4.40106284       1.86399032
N        3.40819893      -3.43543728       2.14043895
C        2.64887946      -2.66155796       1.26911066
H        0.94627060      -0.93337832       3.62572343
H        2.30977578      -2.31133525       5.13500178
H        5.73572143      -6.18043005       4.47694357
H        6.68023791      -5.75692507       3.05198431
H       -0.87823837      -7.31942757       7.00826218
H       -0.37560340      -6.69887634       5.44162961
H        2.47987915      -5.59857466       5.51713822
H        4.36381267      -4.10195350       6.64424912
H        3.65272978      -3.27873382      10.82347802
H        1.63003987      -4.67982802      10.76021995
H        4.59484268      -4.67864387       0.85173726
H        2.79622528      -2.82172453       0.20913303
C        5.36621109      -2.77394743       8.81788118
C        6.35577711      -2.08990015       8.90317132
Br       7.95582167      -0.98385356       9.04107826
C       -0.00445707       0.01189536      -1.78238275
H       -0.66409135       0.67374010      -2.43557963
H        0.65740317      -0.63156657      -2.45157240
C       -0.90989263      -0.90692880      -0.91072765
C        0.90977584       0.90977584      -0.90977584
C       -0.00465871       1.77757030       0.00794375
H       -0.66225468       2.44313916      -0.64384735
H        0.64322798       2.43503045       0.67728295
C       -1.78241447       0.00034974      -0.00472694
H       -2.45427497      -0.65498947       0.64260836
H       -2.43311707       0.67328779      -0.65473579
C       -0.91132561       0.90220522       0.91563759
C       -0.01476271      -0.02253852       1.78660255
H       -0.67934791      -0.69751639       2.42135241
H        0.63392994       0.61504881       2.47327442
C        0.01484550      -1.77751727      -0.01636693
H        0.67870853      -2.42144646      -0.68295456
H       -0.62264859      -2.45592969       0.64226336
C        1.78714474       0.01002794       0.00389507
H        2.44202412       0.67113390       0.66197326
H        2.45385902      -0.65136977      -0.64189061
C        0.91606151      -0.90478549       0.90901405
