182
Properties=species:S:1:pos:R:3 pbc="F F F"
C        1.77431697       1.77431697      -1.77431697
C        1.23532354       2.25089918      -3.04362443
C        1.95841202       3.03666715      -3.86656476
C        3.27746815       3.42182293      -3.49477645
N        4.16461155       4.18960480      -4.09330319
C        5.24488114       4.24967619      -3.23689887
C        6.41840999       5.10872177      -3.56514383
S        6.81674588       6.31550787      -2.26258140
C        5.35215862       7.26648670      -2.27620014
N        4.28928910       6.91593041      -1.58494772
N        3.23103986       7.78016265      -1.79620576
C        3.54921102       8.74807438      -2.62895251
S        2.37862427       9.91305482      -3.19438119
C        1.04229225       8.78139273      -3.69913943
C        1.38963211       7.99755978      -4.92287330
C        2.24992255       6.92468977      -5.04965718
N        2.23118052       6.57303283      -6.37144173
C        2.94857878       5.58508114      -7.03508036
C        2.74510458       5.39701792      -8.34927973
Br       3.65473923       4.10647814      -9.33301806
C        1.76678413       6.23839769      -9.03258114
C        1.08576446       7.20188802      -8.38086519
C        1.31327101       7.41121911      -6.99182492
N        0.80471035       8.27906830      -6.14188295
S        5.17587597       8.71814020      -3.16687840
C        5.02656374       3.44433725      -2.13528406
N        3.75767519       2.94619922      -2.28020075
C        3.02272739       2.13106277      -1.42575793
H        0.22477071       1.96221720      -3.31838444
H        1.55483330       3.39438957      -4.80688995
H        6.24286017       5.64621396      -4.50402092
H        7.29651683       4.47289073      -3.71973972
H        0.15581358       9.39239539      -3.90124241
H        0.78117870       8.10873219      -2.87499167
H        2.86339140       6.40137262      -4.33082801
H        3.65356260       5.00668074      -6.44977195
H        1.59168558       6.07148860     -10.09176743
H        0.35772321       7.82673830      -8.88562633
H        5.62797907       3.23375954      -1.26348519
H        3.49785921       1.82683585      -0.50238778
C       -1.77431697      -1.77431697      -1.77431697
C       -2.50473812      -2.87329741      -1.15181163
C       -3.30438826      -3.68596488      -1.87129080
C       -3.45187297      -3.47137523      -3.27081934
N       -4.17827004      -4.09147053      -4.17777897
C       -3.96510778      -3.40861581      -5.35773262
C       -4.70223305      -3.79541636      -6.59462618
S       -5.63432988      -2.42123516      -7.33927011
C       -6.76051649      -2.08723004      -6.04709893
N       -6.45186717      -1.29477815      -5.04352190
N       -7.46966789      -1.22747676      -4.11026364
C       -8.50246436      -1.96433678      -4.45943676
S       -9.88342139      -2.18740540      -3.41523349
C       -9.02709437      -2.62775772      -1.86797233
C       -8.39935286      -3.98232569      -1.92838664
C       -7.25450460      -4.37815429      -2.59161061
N       -7.11314056      -5.71639197      -2.34612255
C       -6.15176555      -6.60528440      -2.81169034
C       -6.19379327      -7.88654291      -2.41106605
Br      -4.95932130      -9.15797235      -2.97694178
C       -7.25036386      -8.29680749      -1.49059161
C       -8.18480407      -7.42833298      -1.05538062
C       -8.14909014      -6.07461100      -1.49261390
N       -8.93707507      -5.05070164      -1.23788489
S       -8.34098890      -2.74219110      -5.97771458
C       -3.03762916      -2.40215456      -5.16640133
N       -2.73842701      -2.41696104      -3.82868711
C       -1.90678294      -1.57549270      -3.09727246
H       -2.39648069      -3.02698957      -0.08190209
H       -3.85062700      -4.49884582      -1.40663999
H       -5.39438668      -4.61786707      -6.38084130
H       -3.98740163      -4.16374891      -7.33799674
H       -9.77285566      -2.61085063      -1.06574509
H       -8.27734032      -1.86917457      -1.61838767
H       -6.55208173      -3.83588834      -3.20762197
H       -5.40362274      -6.21495306      -3.49143951
H       -7.27067031      -9.32977480      -1.15449651
H       -8.96925311      -7.73015178      -0.37068296
H       -2.61993655      -1.66709717      -5.83819009
H       -1.40611874      -0.78305253      -3.63791157
C       -1.77431697       1.77431697       1.77431697
C       -3.21905691       1.73672057       1.57406969
C       -4.05458953       2.48558154       2.32147286
C       -3.52567787       3.33125334       3.33713632
N       -4.11501118       4.12598043       4.20652793
C       -3.10041694       4.64969386       4.98134541
C       -3.41718312       5.54238285       6.13270963
S       -2.72584955       4.95770582       7.71127978
C       -3.58063233       3.44329981       7.87091331
N       -3.14707926       2.33744727       7.30564070
N       -4.01382428       1.28049937       7.51308463
C       -5.05526366       1.63674960       8.23422465
S       -6.38793355       0.55300716       8.54511958
C       -6.70630505      -0.03237023       6.84888960
C       -7.30058463       1.02867722       5.98080334
C       -6.68669334       2.12666711       5.41090903
N       -7.66065635       2.79444742       4.72055131
C       -7.58180998       3.98266017       4.00427013
C       -8.67489168       4.44267523       3.37383532
Br      -8.67916258       6.02287647       2.39219637
C       -9.90956243       3.66803537       3.46016517
C       -9.97722704       2.52307853       4.16821209
C       -8.82293497       2.04438136       4.84899872
N       -8.63004111       0.98647487       5.60914562
S       -5.02757765       3.26457885       8.76873806
C       -1.87308221       4.21283001       4.52027284
N       -2.14491821       3.34270158       3.49645538
C       -1.27312668       2.57841280       2.72800861
H       -3.61851830       1.08254875       0.80430530
H       -5.12817185       2.45273790       2.17520307
H       -4.50253680       5.65056378       6.23999446
H       -3.01411090       6.54103263       5.93400376
H       -7.40401271      -0.87394544       6.91938411
H       -5.78557504      -0.42195592       6.40128344
H       -5.66760603       2.48338268       5.44460332
H       -6.62541492       4.49188520       3.99271518
H      -10.78700759       4.03379508       2.93413895
H      -10.89229928       1.94533968       4.23244889
H       -0.86513349       4.40129666       4.85879365
H       -0.21675057       2.66401578       2.94631650
C        1.77431697      -1.77431697       1.77431697
C        2.59573831      -1.13646503       2.79764382
C        3.39225017      -1.85647345       3.61292031
C        3.43521763      -3.27362815       3.48522175
N        4.09424540      -4.19194919       4.16132495
C        3.70017799      -5.40241134       3.62886688
C        4.19659302      -6.67989914       4.21578343
S        2.86193203      -7.80681732       4.72608581
C        2.10188243      -6.83274784       5.96021519
N        1.18912837      -5.93104923       5.66998963
N        0.77503278      -5.23927114       6.79310436
C        1.38759361      -5.65931432       7.87932997
S        1.17328380      -4.88414263       9.42863386
C        1.43522184      -3.14829320       8.93930938
C        2.85919558      -2.86269882       8.58817078
C        3.55870278      -3.21488401       7.45068271
N        4.82757442      -2.73156870       7.61651196
C        5.93514863      -2.84822140       6.78537025
C        7.08859210      -2.26016394       7.14264619
Br       8.63025698      -2.35786189       6.10611655
C        7.13245085      -1.51047689       8.39483522
C        6.05496558      -1.41456429       9.19898780
C        4.83760667      -2.05107446       8.82763391
N        3.66911021      -2.12629355       9.43025784
S        2.46384916      -6.96885670       7.62818871
C        2.84071988      -5.19960882       2.56585635
N        2.64144206      -3.84504300       2.49759010
C        1.81995804      -3.11191492       1.64767513
H        2.55214378      -0.05565050       2.89757807
H        3.99803159      -1.38178115       4.37630007
H        4.83703974      -6.47483431       5.08122100
H        4.81511316      -7.19840848       3.47562565
H        1.13991465      -2.52163551       9.78790122
H        0.77503573      -2.88360348       8.10626336
H        3.26974143      -3.76116772       6.56468288
H        5.81305324      -3.42239166       5.87457040
H        8.06201515      -1.02104125       8.67188522
H        6.08458539      -0.85716376      10.12833869
H        2.32985511      -5.88711048       1.90825822
H        1.24141424      -3.66568793       0.91998067
C       -0.00445707       0.01189536      -1.78238275
H       -0.66409135       0.67374010      -2.43557963
H        0.65740317      -0.63156657      -2.45157240
C       -0.90989263      -0.90692880      -0.91072765
C        0.90977584       0.90977584      -0.90977584
C       -0.00465871       1.77757030       0.00794375
H       -0.66225468       2.44313916      -0.64384735
H        0.64322798       2.43503045       0.67728295
C       -1.78241447       0.00034974      -0.00472694
H       -2.45427497      -0.65498947       0.64260836
H       -2.43311707       0.67328779      -0.65473579
C       -0.91132561       0.90220522       0.91563759
C       -0.01476271      -0.02253852       1.78660255
H       -0.67934791      -0.69751639       2.42135241
H        0.63392994       0.61504881       2.47327442
C        0.01484550      -1.77751727      -0.01636693
H        0.67870853      -2.42144646      -0.68295456
H       -0.62264859      -2.45592969       0.64226336
C        1.78714474       0.01002794       0.00389507
H        2.44202412       0.67113390       0.66197326
H        2.45385902      -0.65136977      -0.64189061
C        0.91606151      -0.90478549       0.90901405
