118
Properties=species:S:1:pos:R:3 pbc="F F F"
C        1.79174162       1.79174162      -1.79174162
C        2.62833142       2.73909871      -1.20532772
C        3.44125971       3.53963566      -2.01096208
C        3.41981431       3.39759402      -3.40534256
C        2.56913746       2.44134597      -3.98058058
C        1.75795938       1.63869438      -3.17597502
C        4.31147494       4.24708672      -4.27663094
O        5.16994032       3.41394957      -5.06120342
C        6.31909273       3.01705438      -4.44643235
O        6.68097767       3.37830884      -3.33254181
C        7.04617263       2.10135945      -5.29475363
C        8.21617373       1.39869271      -5.06588271
C        8.47842933       0.64502883      -6.23621771
C        7.45759677       0.93272137      -7.11200883
Br       7.28306092       0.22460661      -8.82865480
O        6.58509463       1.81101938      -6.55293502
H        2.66171481       2.85769524      -0.12553087
H        4.10351053       4.26470048      -1.54121956
H        2.54587318       2.31004819      -5.06111104
H        1.11113388       0.89727169      -3.63726370
H        4.88628443       4.98060274      -3.69791296
H        3.68650409       4.82302753      -4.96894520
H        8.79961305       1.43110944      -4.15495832
H        9.30881191      -0.02364831      -6.41537056
C       -1.79174162      -1.79174162      -1.79174162
C       -1.31485449      -2.23399187      -3.02391149
C       -2.11766540      -3.04754977      -3.82664228
C       -3.40035837      -3.42057969      -3.40181282
C       -3.86726194      -2.96393987      -2.15986219
C       -3.06451120      -2.15273435      -1.35538323
C       -4.26178653      -4.31554497      -4.25786109
O       -4.60870622      -5.50074018      -3.53564691
C       -3.69001912      -6.50542075      -3.58713958
O       -2.65954767      -6.48196969      -4.25031095
C       -4.10238930      -7.60021048      -2.73968594
C       -3.46361533      -8.78790198      -2.42923183
C       -4.31716633      -9.49515738      -1.54735216
C       -5.42731806      -8.70204432      -1.37296460
Br      -6.89748474      -9.13062310      -0.30821449
O       -5.30779254      -7.55326844      -2.08798805
H       -0.32036227      -1.95918731      -3.36539135
H       -1.72844249      -3.40128067      -4.77970742
H       -4.85705878      -3.25108019      -1.80889344
H       -3.43833112      -1.81469315      -0.39264500
H       -3.78985443      -4.55659438      -5.21835132
H       -5.19316542      -3.78898652      -4.49632487
H       -2.49340323      -9.09373709      -2.79854050
H       -4.14165631     -10.46208627      -1.09679158
C       -1.79174162       1.79174162       1.79174162
C       -1.48320681       1.94814524       3.14140580
C       -2.28436888       2.76141209       3.94607647
C       -3.39754535       3.41978795       3.40541759
C       -3.69680322       3.24908824       2.04517255
C       -2.89502670       2.43838410       1.23921799
C       -4.25290323       4.31462514       4.26766423
O       -4.27957871       5.63876170       3.72675290
C       -3.24330501       6.44162919       4.09764526
O       -2.36504156       6.13219603       4.89459072
C       -3.32475306       7.70875786       3.40877479
C       -2.46740520       8.79498428       3.41835967
C       -3.03031528       9.77029123       2.55906935
C       -4.19831891       9.22623175       2.07777631
Br      -5.36985710      10.06970866       0.89675657
O       -4.38578651       7.97957854       2.58368398
H       -0.62013382       1.44986022       3.57494688
H       -2.02416563       2.89004554       4.99521940
H       -4.55172649       3.75995747       1.60534845
H       -3.13613146       2.32369165       0.18584616
H       -3.93079972       4.31771518       5.31628522
H       -5.28107565       3.93458118       4.26281998
H       -1.54464114       8.86110139       3.97993829
H       -2.63147324      10.74681546       2.32224546
C        1.79174162      -1.79174162       1.79174162
C        2.59795888      -2.76672578       1.20807319
C        3.41098348      -3.56740933       2.01346464
C        3.41995939      -3.39788399       3.40490751
C        2.59961177      -2.41395026       3.97750197
C        1.78839824      -1.61116758       3.17306296
C        4.31203598      -4.24778908       4.27536754
O        5.20192863      -3.41674128       5.02642340
C        6.34616410      -3.05474132       4.38167403
O        6.67879611      -3.44469195       3.26834026
C        7.10759143      -2.13732259       5.19737170
C        8.28626571      -1.46257877       4.93190466
C        8.58628306      -0.69164950       6.08174330
C        7.57761748      -0.94195813       6.98275137
Br       7.45095973      -0.19727585       8.68808675
O        6.67728706      -1.81348628       6.45827569
H        2.60761055      -2.90693482       0.13039555
H        4.04956504      -4.31446112       1.54540441
H        2.60033684      -2.26123126       5.05546431
H        1.16538647      -0.84823451       3.63204829
H        4.86088458      -5.00367381       3.70024173
H        3.68983610      -4.79765252       4.99098820
H        8.85078567      -1.52426542       4.01062973
H        9.43290018      -0.03621355       6.23142044
C       -0.00445707       0.01189536      -1.78238275
H       -0.66409135       0.67374010      -2.43557963
H        0.65740317      -0.63156657      -2.45157240
C       -0.90989263      -0.90692880      -0.91072765
C        0.90977584       0.90977584      -0.90977584
C       -0.00465871       1.77757030       0.00794375
H       -0.66225468       2.44313916      -0.64384735
H        0.64322798       2.43503045       0.67728295
C       -1.78241447       0.00034974      -0.00472694
H       -2.45427497      -0.65498947       0.64260836
H       -2.43311707       0.67328779      -0.65473579
C       -0.91132561       0.90220522       0.91563759
C       -0.01476271      -0.02253852       1.78660255
H       -0.67934791      -0.69751639       2.42135241
H        0.63392994       0.61504881       2.47327442
C        0.01484550      -1.77751727      -0.01636693
H        0.67870853      -2.42144646      -0.68295456
H       -0.62264859      -2.45592969       0.64226336
C        1.78714474       0.01002794       0.00389507
H        2.44202412       0.67113390       0.66197326
H        2.45385902      -0.65136977      -0.64189061
C        0.91606151      -0.90478549       0.90901405
