121
Properties=species:S:1:pos:R:3 pbc="F F F"
C        0.00000000       0.00000000       0.00000000
C        0.88157593       0.88157593      -0.88157593
C        1.05141564       2.22801756      -0.56651045
C        1.86120172       3.03611616      -1.37062622
C        2.50590180       2.49221848      -2.49120400
C        2.32719802       1.13554237      -2.79887843
C        1.51427498       0.33271364      -1.99398855
N        3.34504312       3.30907621      -3.30254484
C        3.42750029       3.34143523      -4.68634423
S        2.42203248       2.47336956      -5.79848074
N        4.26709614       4.26529375      -5.08189382
N        4.76518083       4.87264399      -3.96804291
C        4.24662138       4.29960371      -2.89320386
C        4.66047555       4.66151015      -1.53094591
C        4.90828071       6.01391522      -1.24093949
C        5.33388245       6.41320240       0.02901750
C        5.52012055       5.45727753       1.02278773
C        5.30157312       4.10852771       0.75185881
C        4.88872820       3.71130997      -0.52518376
H        0.55341562       2.65979787       0.29831857
H        1.94640153       4.09072489      -1.11644096
H        2.84004117       0.66289859      -3.63352274
H        1.38848164      -0.71914522      -2.24045110
H        2.90289468       3.04825649      -6.91073887
H        4.78129661       6.76953024      -2.01583194
H        5.52368400       7.46586826       0.22414914
H        5.46062709       3.35754581       1.52134519
H        4.76098610       2.64849363      -0.71762293
C        5.95380675       5.86397789       2.33431780
C        6.31701893       6.20458944       3.43272423
Br       6.90430231       6.75532950       5.20875452
C       -0.88157593      -0.88157593      -0.88157593
C       -1.11781213      -2.20656693      -0.52156460
C       -1.92775027      -3.01443898      -1.32575484
C       -2.50591969      -2.49164591      -2.49175868
C       -2.26070681      -1.15648212      -2.84442988
C       -1.44787972      -0.35396222      -2.03913523
N       -3.34524028      -3.30741497      -3.30400892
C       -3.37511809      -3.39245380      -4.68770785
S       -2.29293974      -2.60976686      -5.79117617
N       -4.23537013      -4.29823119      -5.08068239
N       -4.80049166      -4.84025419      -3.96512187
C       -4.30134034      -4.24481444      -2.89327417
C       -4.78209292      -4.53501108      -1.53582762
C       -5.09543950      -5.86394024      -1.20375568
C       -5.58584643      -6.19473332       0.06251240
C       -5.77175843      -5.19290813       1.01005620
C       -5.48851243      -3.86572073       0.69599114
C       -5.01065065      -3.53678466      -0.57778661
H       -0.67164489      -2.62205750       0.37880748
H       -2.06531856      -4.05380496      -1.03444387
H       -2.72121470      -0.69839564      -3.71685216
H       -1.27019292       0.68139338      -2.32098800
H       -2.75307409      -3.21002732      -6.89878863
H       -4.96909459      -6.65462156      -1.94294263
H       -5.82547930      -7.23048291       0.29055908
H       -5.64685402      -3.07863792       1.42866423
H       -4.83267393      -2.48838087      -0.80604787
C       -6.27215177      -5.52910824       2.31779318
C       -6.69123119      -5.81067584       3.41302289
Br      -7.36884717      -6.26594684       5.18391671
C       -0.88157593       0.88157593       0.88157593
C       -1.48381804       2.01740500       0.34472062
C       -2.29435193       2.82403000       1.14956217
C       -2.50524347       2.48899504       2.49508577
C       -1.89343850       1.34343014       3.02475018
C       -1.08160486       0.54219569       2.21717663
N       -3.34414321       3.29952528       3.31299568
C       -3.13297513       3.69808664       4.62421797
S       -1.71077299       3.41190165       5.57120813
N       -4.09149804       4.49268726       5.03009841
N       -4.96645676       4.64340953       3.99600143
C       -4.55224183       3.91869087       2.96849626
C       -5.33328210       3.78849898       1.73115054
C       -6.00477483       4.92014515       1.23821543
C       -6.78740228       4.84816176       0.08250330
C       -6.90862469       3.63623611      -0.59025045
C       -6.26963513       2.49640233      -0.10779544
C       -5.49800210       2.56955769       1.05766213
H       -1.32399858       2.28731608      -0.69641974
H       -2.72288869       3.72188670       0.70879200
H       -2.06223861       1.02366327       4.05056062
H       -0.61750095      -0.34651809       2.63880467
H       -2.08217890       4.15688724       6.62282390
H       -5.93017312       5.87080287       1.76568280
H       -7.30060947       5.73819400      -0.27340034
H       -6.37438346       1.54469734      -0.62225309
H       -5.04062709       1.65593780       1.43053777
C       -7.70982046       3.55785751      -1.78421114
C       -8.38082192       3.49221543      -2.78415321
Br      -9.46577453       3.38607774      -4.40097498
C        0.88157593      -0.88157593       0.88157593
C        1.27049299      -2.14208056       0.43337011
C        2.08072897      -2.94943204       1.23778308
C        2.50579519      -2.49043730       2.49309179
C        2.10764989      -1.21992246       2.93404647
C        1.29514273      -0.41802359       2.12781085
N        3.34522681      -3.30386591       3.30757145
C        3.26462742      -3.51498794       4.67566438
S        2.02375898      -2.93415979       5.73596401
N        4.16904532      -4.37672757       5.06851082
N        4.87555840      -4.76186118       3.96844815
C        4.41632315      -4.11367252       2.90943328
C        5.03627068      -4.23360592       1.58305501
C        5.49965929      -5.49404207       1.16943406
C        6.12518986      -5.66194209      -0.06906461
C        6.29690752      -4.56374305      -0.90604021
C        5.86507804      -3.30078080      -0.50761682
C        5.25152380      -3.13435318       0.73934494
H        0.94365016      -2.50818747      -0.53694272
H        2.33921000      -3.94145826       0.87289913
H        2.44712423      -0.80772538       3.88161288
H        0.99804869       0.56748188       2.47922073
H        2.44168704      -3.59380543       6.82639758
H        5.38509220      -6.35823576       1.82333083
H        6.47917262      -6.64757611      -0.36134561
H        6.01116428      -2.43803253      -1.15236911
H        4.95750005      -2.13092066       1.03868195
C        6.93639141      -4.73227799      -2.18520256
C        7.47195917      -4.87342600      -3.25650103
Br       8.33792695      -5.10165040      -4.98870005
