142
Properties=species:S:1:pos:R:3 pbc="F F F"
C        1.79147995       1.79147995      -1.79147995
C        1.96131967       3.13792159      -1.47641448
C        2.77110574       3.94602018      -2.28053025
C        3.41580582       3.40212251      -3.40110803
C        3.23710204       2.04544639      -3.70878245
C        2.42417900       1.24261766      -2.90389258
N        4.25494714       4.21898023      -4.21244887
C        4.33740432       4.25133925      -5.59624825
S        3.33193650       3.38327358      -6.70838476
N        5.17700016       5.17519777      -5.99179785
N        5.67508486       5.78254801      -4.87794693
C        5.15652541       5.20950773      -3.80310788
C        5.57037957       5.57141418      -2.44084994
C        5.81818473       6.92381924      -2.15084352
C        6.24378647       7.32310642      -0.88088652
C        6.43002458       6.36718156       0.11288371
C        6.21147714       5.01843174      -0.15804522
C        5.79863222       4.62121399      -1.43508778
H        1.46331964       3.56970189      -0.61158546
H        2.85630556       5.00062892      -2.02634498
H        3.74994519       1.57280261      -4.54342677
H        2.29838567       0.19075881      -3.15035513
H        3.81279870       3.95816052      -7.82064289
H        5.69120063       7.67943426      -2.92573597
H        6.43358803       8.37577229      -0.68575488
H        6.37053111       4.26744984       0.61144117
H        5.67089012       3.55839766      -1.62752696
C        6.86371077       6.77388191       1.42441377
C        7.22692296       7.11449346       2.52282020
Br       7.81420634       7.66523353       4.29885050
C       -1.79147995      -1.79147995      -1.79147995
C       -3.13009180      -1.45849392      -1.98707001
C       -3.93810252      -2.26263691      -2.79691673
C       -3.40189696      -3.40132129      -3.41581811
C       -2.05307389      -3.72693693      -3.21132007
C       -1.25036781      -2.92189040      -2.39843103
N       -4.21832721      -4.21301035      -4.25503868
C       -4.27095728      -5.59726707      -4.31676746
S       -3.43582536      -6.70679186      -3.28097764
N       -5.18788285      -5.99163098      -5.16448195
N       -5.77011264      -4.87648989      -5.68897727
C       -5.18842529      -3.80261877      -5.17809697
C       -5.52269389      -2.44158109      -5.61836870
C       -6.86646272      -2.13477047      -5.89161430
C       -7.23935998      -0.86562159      -6.34279785
C       -6.26533756       0.11035859      -6.52934346
C       -4.92447761      -0.17777854      -6.28569795
C       -4.55356405      -1.45417817      -5.84719177
H       -3.55593943      -0.57949972      -1.50916784
H       -4.98719637      -1.99367244      -2.90241064
H       -1.58567509      -4.57661110      -3.70388837
H       -0.20452523      -3.18245989      -2.25251449
H       -4.02051933      -7.81745795      -3.75362484
H       -7.63590734      -2.89591815      -5.76454537
H       -8.28582730      -0.65735485      -6.55193304
H       -4.15925756       0.57753614      -6.44481835
H       -3.49595545      -1.66087481      -5.69998447
C       -6.64487510       1.42105841      -6.98936222
C       -6.96273779       2.51876950      -7.37462793
Br      -7.47669487       4.29367550      -7.99757000
C       -1.79147995       1.79147995       1.79147995
C       -2.85456016       1.22756414       2.49353143
C       -3.66084562       2.03265515       3.30415540
C       -3.39832701       3.40597750       3.41473185
C       -2.32565903       3.96270388       2.70296798
C       -1.52465068       3.15449466       1.89154390
N       -4.20765615       4.22562380       4.25309629
C       -4.69861734       5.49561691       3.99075756
S       -4.55554489       6.36749632       2.50055364
N       -5.45946638       5.91310480       4.97142460
N       -5.49417330       4.92834758       5.91305892
C       -4.73246843       3.92124709       5.51542550
C       -4.48014819       2.74458051       6.35791498
C       -5.53773910       2.22897364       7.12613475
C       -5.34839603       1.13033582       7.96904756
C       -4.09198597       0.53847693       8.05385952
C       -3.02368432       1.04614124       7.31812854
C       -3.21415757       2.15510372       6.48567270
H       -3.06812371       0.16449865       2.41198463
H       -4.50295703       1.56759980       3.81272264
H       -2.06094339       5.01397045       2.79126072
H       -0.69253992       3.59773214       1.34922755
H       -5.34144590       7.39477284       2.85538337
H       -6.52207684       2.69425987       7.08003415
H       -6.18303276       0.75555776       8.55652467
H       -2.03734800       0.59575230       7.39343948
H       -2.35380768       2.55164213       5.95136493
C       -3.89280732      -0.59674156       8.91711315
C       -3.72599520      -1.54748706       9.64008807
Br      -3.45627412      -3.08476210      10.80907736
C        1.79147995      -1.79147995       1.79147995
C        1.47460008      -3.13716939       1.96388625
C        2.28273106      -3.94693257       2.76799253
C        3.41394842      -3.40744575       3.39764219
C        3.72286685      -2.05128536       3.21717867
C        2.91027547      -1.24526382       2.41514996
N        4.24863627      -4.23398244       4.20375753
C        4.82523543      -3.93170063       5.42805576
S        4.56664883      -2.49537456       6.36157145
N        5.47866685      -4.96246916       5.90285977
N        5.35233483      -5.97921490       5.00403006
C        4.64237972      -5.55744448       3.96931682
C        4.41325662      -6.38911440       2.78027267
C        4.17360062      -7.76239324       2.95685363
C        3.97930373      -8.60761660       1.86085909
C        4.02781482      -8.08379009       0.57271752
C        4.28555156      -6.72957118       0.37283136
C        4.49330169      -5.88905710       1.47257520
H        0.59802787      -3.56408133       1.48249779
H        1.98914774      -4.98520806       2.90892365
H        4.61219465      -1.60131170       3.65266822
H        3.16408965      -0.19645273       2.27895723
H        5.25634032      -2.89507813       7.44018367
H        4.14935969      -8.18671169       3.96029947
H        3.80132732      -9.66739451       2.02639336
H        4.33917569      -6.31982604      -0.63246196
H        4.72827153      -4.84387269       1.28467051
C        3.82342155      -8.94947591      -0.55971855
C        3.65224218      -9.67448779      -1.50813375
Br       3.37545962     -10.84677068      -3.04164093
C       -0.00445707       0.01189536      -1.78238275
H       -0.66409135       0.67374010      -2.43557963
H        0.65740317      -0.63156657      -2.45157240
C       -0.90989263      -0.90692880      -0.91072765
C        0.90977584       0.90977584      -0.90977584
C       -0.00465871       1.77757030       0.00794375
H       -0.66225468       2.44313916      -0.64384735
H        0.64322798       2.43503045       0.67728295
C       -1.78241447       0.00034974      -0.00472694
H       -2.45427497      -0.65498947       0.64260836
H       -2.43311707       0.67328779      -0.65473579
C       -0.91132561       0.90220522       0.91563759
C       -0.01476271      -0.02253852       1.78660255
H       -0.67934791      -0.69751639       2.42135241
H        0.63392994       0.61504881       2.47327442
C        0.01484550      -1.77751727      -0.01636693
H        0.67870853      -2.42144646      -0.68295456
H       -0.62264859      -2.45592969       0.64226336
C        1.78714474       0.01002794       0.00389507
H        2.44202412       0.67113390       0.66197326
H        2.45385902      -0.65136977      -0.64189061
C        0.91606151      -0.90478549       0.90901405
