113
Properties=species:S:1:pos:R:3 pbc="F F F"
C        0.00000000       0.00000000       0.00000000
C        0.88157593       0.88157593      -0.88157593
C        1.05141564       2.22801756      -0.56651045
C        1.86120172       3.03611616      -1.37062622
C        2.50590180       2.49221848      -2.49120400
C        2.32719802       1.13554237      -2.79887843
C        1.51427498       0.33271364      -1.99398855
N        3.34504312       3.30907621      -3.30254484
C        3.42750029       3.34143523      -4.68634423
S        2.42203248       2.47336956      -5.79848074
N        4.26709614       4.26529375      -5.08189382
N        4.76518083       4.87264399      -3.96804291
C        4.24662138       4.29960371      -2.89320386
C        4.66047555       4.66151015      -1.53094591
C        4.90828071       6.01391522      -1.24093949
C        5.33388245       6.41320240       0.02901750
C        5.52012055       5.45727753       1.02278773
Br       6.08926825       5.99101039       2.74397307
C        5.30157312       4.10852771       0.75185881
C        4.88872820       3.71130997      -0.52518376
H        0.55341562       2.65979787       0.29831857
H        1.94640153       4.09072489      -1.11644096
H        2.84004117       0.66289859      -3.63352274
H        1.38848164      -0.71914522      -2.24045110
H        2.90289468       3.04825649      -6.91073887
H        4.78129661       6.76953024      -2.01583194
H        5.52368400       7.46586826       0.22414914
H        5.46062709       3.35754581       1.52134519
H        4.76098610       2.64849363      -0.71762293
C       -0.88157593      -0.88157593      -0.88157593
C       -1.81339952      -0.29639863      -1.73614551
C       -2.61916662      -1.10193906      -2.54683841
C       -2.48769200      -2.49765910      -2.50397318
C       -1.54653433      -3.07561197      -1.63947252
C       -0.74575337      -2.26641791      -0.82880589
N       -3.29540173      -3.32014197      -3.34112047
C       -3.93411052      -4.50675852      -3.01441071
S       -4.01705253      -5.23307012      -1.44376013
N       -4.64012456      -4.94966085      -4.02449829
N       -4.48871384      -4.06604630      -5.05110758
C       -3.66884658      -3.09801634      -4.67256604
C       -3.22279424      -2.04058232      -5.58955505
C       -4.14799427      -1.51044960      -6.50469155
C       -3.77217374      -0.52458475      -7.42130885
C       -2.45994633      -0.06199801      -7.43266601
Br      -1.94665510       1.27547900      -8.66512947
C       -1.52035517      -0.58852610      -6.54936076
C       -1.89737970      -1.58557182      -5.64227040
H       -1.92505626       0.78454455      -1.77438321
H       -3.35980959      -0.61540906      -3.17834874
H       -1.38239338      -4.15023696      -1.60383215
H       -0.01590735      -2.72700805      -0.16687213
H       -4.86685159      -6.21454568      -1.78049278
H       -5.17435812      -1.87649755      -6.51580312
H       -4.50729777      -0.13614449      -8.12196086
H       -0.49083861      -0.24037009      -6.56561901
H       -1.13410705      -2.00329701      -4.98969860
C       -0.88157593       0.88157593       0.88157593
C       -1.63525184       1.90310636       0.30758546
C       -2.44590898       2.70921629       1.11281883
C       -2.50456999       2.48815505       2.49659924
C       -1.74110627       1.45711878       3.06339377
C       -0.92991972       0.65620433       2.25485313
N       -3.34257964       3.29690511       3.31717942
C       -3.05647232       3.83693736       4.56187006
S       -1.53567693       3.76931704       5.38888881
N       -4.04773055       4.57969276       4.98686041
N       -5.02055002       4.55266821       4.03264949
C       -4.63027368       3.77151202       3.03764325
C       -5.50075917       3.45463559       1.89753686
C       -6.31883510       4.47016929       1.37413103
C       -7.18933393       4.21873022       0.31000320
C       -7.25183523       2.94168515      -0.23891003
Br      -8.42199294       2.59641234      -1.68209970
C       -6.46611658       1.91416986       0.27795559
C       -5.60577551       2.16674438       1.35270204
H       -1.59422448       2.08444031      -0.76376987
H       -2.99599710       3.51931552       0.63825477
H       -1.78758046       1.22408891       4.12479312
H       -0.34712972      -0.14355103       2.70620885
H       -1.88334495       4.57664925       6.40189584
H       -6.29014279       5.47008447       1.80643153
H       -7.81516389       5.02181315      -0.07157391
H       -6.52345496       0.91182254      -0.13844979
H       -5.03153843       1.33700754       1.75855669
C        0.88157593      -0.88157593       0.88157593
C        0.29541100      -1.78085441       1.76967826
C        1.10110098      -2.59154958       2.57529354
C        2.49814384      -2.50366535       2.48751510
C        3.07706435      -1.59439425       1.59016022
C        2.26757807      -0.78398401       0.78941509
N        3.32150604      -3.34035163       3.29480650
C        4.47836239      -2.99838101       3.97853634
S        5.15396352      -1.41027501       4.12964425
N        4.93071902      -4.01593949       4.66762520
N        4.08347518      -5.06304296       4.45934958
C        3.12895827      -4.68846722       3.62200347
C        2.11339681      -5.62222983       3.11730498
C        1.58425857      -6.58020054       3.99867630
C        0.63812444      -7.51361514       3.56632777
C        0.21490928      -7.49878847       2.24091261
Br      -1.06890149      -8.75394582       1.65126124
C        0.74183469      -6.57229031       1.34411702
C        1.69939314      -5.64810165       1.77772714
H       -0.78669322      -1.85425161       1.84733653
H        0.61235799      -3.25926867       3.28194073
H        4.15447920      -1.52218668       1.45979661
H        2.72916423      -0.08695933       0.09366397
H        6.11976562      -1.74359105       4.99853337
H        1.92011432      -6.61164945       5.03489501
H        0.24964234      -8.24736040       4.26840039
H        0.42477751      -6.56756469       0.30448551
H        2.11942010      -4.96067844       1.04700412
