122
Properties=species:S:1:pos:R:3 pbc="F F F"
C        1.78176406       1.78176406      -1.78176406
C        2.22719737       1.40920803      -3.02287215
C        3.03740056       2.43067445      -3.60403452
C        3.16641234       3.54340570      -2.78753293
S        2.30475244       3.32216071      -1.31571297
C        3.92725324       4.76139131      -3.08059357
O        4.63833966       4.83670630      -4.07795896
N        3.74253608       5.76985259      -2.16154276
C        4.36516576       6.97984492      -2.23653325
S        3.92744142       8.05138842      -0.98124819
C        4.99348957       9.22373911      -1.64066833
C        5.60874006       8.71408610      -2.76822476
N        5.23247240       7.42378952      -3.10602871
C        6.61598352       9.46034369      -3.59000255
C        7.20720489       8.93211474      -4.72118145
C        8.13790096       9.83762636      -5.31682868
C        8.20869106      11.00869753      -4.60791580
Br       9.32586094      12.43791818      -5.07574341
S        7.18350012      11.03986150      -3.25994673
H        1.99775621       0.46301703      -3.49788568
H        3.50548186       2.36246822      -4.58061383
H        3.11305818       5.62528156      -1.38667102
H        5.11004424      10.19224648      -1.17676393
H        6.98277872       7.94124606      -5.10216903
H        8.71300186       9.62468614      -6.21029008
C       -1.78176406      -1.78176406      -1.78176406
C       -2.13622880      -3.06513278      -1.45791597
C       -2.95536935      -3.64214318      -2.47459699
C       -3.20081184      -2.77155219      -3.52498693
S       -2.41827817      -1.26297312      -3.26137484
C       -3.99820324      -3.04763282      -4.72340206
O       -4.43319074      -4.17326356      -4.94655062
N       -4.20979266      -1.94447264      -5.51966613
C       -4.91239879      -1.98230902      -6.68683611
S       -5.04479898      -0.46216519      -7.45311386
C       -5.93515994      -1.20320311      -8.71953397
C       -6.06546701      -2.55604631      -8.46953760
N       -5.47931927      -2.99135278      -7.29161858
C       -6.77201131      -3.51751781      -9.37680064
C       -6.89927512      -4.86423423      -9.09699173
C       -7.60483350      -5.56447211     -10.12305040
C       -7.97766455      -4.71524217     -11.13239767
Br      -8.91569853      -5.26628969     -12.65753430
S       -7.50576147      -3.11023602     -10.86731085
H       -1.83156588      -3.57509156      -0.55200148
H       -3.35567240      -4.65020977      -2.44268175
H       -3.83600993      -1.05081438      -5.23818646
H       -6.29997515      -0.62396604      -9.55511346
H       -6.50296497      -5.32507275      -8.19815608
H       -7.81514806      -6.62739974     -10.10543026
C       -1.78176406       1.78176406       1.78176406
C       -2.11957912       3.07202902       1.46766942
C       -2.94327565       3.64702802       2.48180585
C       -3.20861758       2.76825481       3.52047857
S       -2.43898022       1.25440165       3.24924425
C       -4.01556501       3.04025534       4.71341777
O       -4.44122158       4.16799673       4.94378661
N       -4.24680786       1.93120618       5.49591739
C       -4.96111183       1.96432253       6.65610957
S       -5.11716221       0.43781856       7.40509726
C       -6.01298236       1.17499387       8.66992079
C       -6.12671693       2.53162809       8.43270590
N       -5.52386684       2.97292826       7.26549553
C       -6.83272371       3.49100198       9.34260408
C       -6.94316785       4.84178584       9.07554739
C       -7.65212118       5.53871866      10.10151616
C       -8.04418994       4.68305509      11.09805936
Br      -8.99233374       5.22808886      12.61909992
S       -7.58612896       3.07603766      10.82114173
H       -1.80024831       3.58810150       0.57030911
H       -3.33280591       4.65948716       2.45627086
H       -3.87934904       1.03665179       5.20900994
H       -6.39244053       0.59100284       9.49561127
H       -6.53278006       5.30771524       8.18569850
H       -7.85126652       6.60390556      10.09280600
C        1.78176406      -1.78176406       1.78176406
C        2.15696121      -1.44613533       3.05618101
C        2.98630640      -2.45701784       3.62878529
C        3.19930067      -3.52584562       2.77220468
S        2.39208545      -3.27625816       1.27428253
C        4.00037755      -4.72216656       3.04669401
O        4.67101166      -4.81141521       4.07057805
N        3.89996678      -5.69571644       2.07824821
C        4.57202120      -6.88024662       2.12927610
S        4.23619938      -7.91257906       0.81129958
C        5.32428185      -9.06664919       1.46696598
C        5.86771205      -8.58190659       2.64143228
N        5.42041165      -7.32509126       3.01678771
C        6.87124617      -9.32041308       3.47467052
C        7.38971272      -8.81831362       4.65247474
C        8.33355035      -9.70897644       5.24982922
C        8.48644768     -10.84329520       4.49556151
Br       9.64513068     -12.24305390       4.95133795
S        7.52196210     -10.85810528       3.10324097
H        1.86566785      -0.53262395       3.56036713
H        3.40889984      -2.41243667       4.62722741
H        3.29823688      -5.54376168       1.28301220
H        5.50342211     -10.00773353       0.96789901
H        7.10544062      -7.85581533       5.06493785
H        8.86006336      -9.51168495       6.17622975
C       -0.00445707       0.01189536      -1.78238275
H       -0.66409135       0.67374010      -2.43557963
H        0.65740317      -0.63156657      -2.45157240
C       -0.90989263      -0.90692880      -0.91072765
C        0.90977584       0.90977584      -0.90977584
C       -0.00465871       1.77757030       0.00794375
H       -0.66225468       2.44313916      -0.64384735
H        0.64322798       2.43503045       0.67728295
C       -1.78241447       0.00034974      -0.00472694
H       -2.45427497      -0.65498947       0.64260836
H       -2.43311707       0.67328779      -0.65473579
C       -0.91132561       0.90220522       0.91563759
C       -0.01476271      -0.02253852       1.78660255
H       -0.67934791      -0.69751639       2.42135241
H        0.63392994       0.61504881       2.47327442
C        0.01484550      -1.77751727      -0.01636693
H        0.67870853      -2.42144646      -0.68295456
H       -0.62264859      -2.45592969       0.64226336
C        1.78714474       0.01002794       0.00389507
H        2.44202412       0.67113390       0.66197326
H        2.45385902      -0.65136977      -0.64189061
C        0.91606151      -0.90478549       0.90901405
