130
Properties=species:S:1:pos:R:3 pbc="F F F"
C        1.78176406       1.78176406      -1.78176406
C        2.22719737       1.40920803      -3.02287215
C        3.03740056       2.43067445      -3.60403452
C        3.16641234       3.54340570      -2.78753293
S        2.30475244       3.32216071      -1.31571297
C        3.92725324       4.76139131      -3.08059357
O        4.63833966       4.83670630      -4.07795896
N        3.74253608       5.76985259      -2.16154276
C        4.36516576       6.97984492      -2.23653325
S        3.92744142       8.05138842      -0.98124819
C        4.99348957       9.22373911      -1.64066833
C        5.60874006       8.71408610      -2.76822476
N        5.23247240       7.42378952      -3.10602871
C        6.61598352       9.46034369      -3.59000255
C        7.20720489       8.93211474      -4.72118145
C        8.13790096       9.83762636      -5.31682868
C        8.20869106      11.00869753      -4.60791580
S        7.18350012      11.03986150      -3.25994673
H        1.99775621       0.46301703      -3.49788568
H        3.50548186       2.36246822      -4.58061383
H        3.11305818       5.62528156      -1.38667102
H        5.11004424      10.19224648      -1.17676393
H        6.98277872       7.94124606      -5.10216903
H        8.71300186       9.62468614      -6.21029008
C        9.06741332      12.10728031      -4.96751552
C        9.78659321      13.02734338      -5.26868029
Br      10.94944627      14.51500756      -5.75563826
C       -1.78176406      -1.78176406      -1.78176406
C       -2.12131875      -3.07132071      -1.46663810
C       -2.94453913      -3.64652659      -2.48104380
C       -3.20780194      -2.76859363      -3.52095539
S       -2.43681719      -1.25528201      -3.25052693
C       -4.01375079      -3.04101351      -4.71447381
O       -4.44038060      -4.16854223      -4.94408209
N       -4.24294236      -1.93256392      -5.49842515
C       -4.95602421      -1.96616477      -6.65935494
S       -5.10960685      -0.44030599      -7.41016519
C       -6.00485505      -1.17788178      -8.67516019
C       -6.12031820      -2.53413383      -8.43659888
N       -5.51921234      -2.97482056      -7.26825772
C       -6.82637889      -3.49372860      -9.34622227
C       -6.93857760      -4.84410150      -9.07782198
C       -7.64717438      -5.54137823     -10.10380340
C       -8.03723459      -4.68637185     -11.10169795
S       -7.57773094      -3.07955228     -10.82602513
H       -1.80352054      -3.58676517      -0.56837320
H       -3.33519491      -4.65853474      -2.45483427
H       -3.87482446      -1.03809754      -5.21208877
H       -6.38278453      -0.59437596      -9.50189416
H       -6.52965999      -5.30950976      -8.18702406
H       -7.84748442      -6.60633863     -10.09415502
C       -8.76522018      -5.10579483     -12.27119413
C       -9.37490812      -5.45706157     -13.25064719
Br     -10.36072196      -6.02503018     -14.83433995
C       -1.78176406       1.78176406       1.78176406
C       -2.09475168       3.08182488       1.48270099
C       -2.92524674       3.65395516       2.49290762
C       -3.22025972       2.76356499       3.51352625
S       -2.46985030       1.24222647       3.23054935
C       -4.04146149       3.02975848       4.69801815
O       -4.45327191       4.16033423       4.93939878
N       -4.30192381       1.91255440       5.45945322
C       -5.03366636       1.93897779       6.60889978
S       -5.22485026       0.40376017       7.33146760
C       -6.12887289       1.13529929       8.59372483
C       -6.21801395       2.49703163       8.37600534
N       -5.59029362       2.94675936       7.22523765
C       -6.92330890       3.45320934       9.28981153
C       -7.00878421       4.80950023       9.04221664
C       -7.72287341       5.50156107      10.06792153
C       -8.14356945       4.63690199      11.04483295
S       -7.70600542       3.02737505      10.74992787
H       -1.75354714       3.60658527       0.59852651
H       -3.29871567       4.67264727       2.47720098
H       -3.94382835       1.01688796       5.16429446
H       -6.53011545       0.54467782       9.40426137
H       -6.57743294       5.28259198       8.16616889
H       -7.90545510       6.56973620      10.07278677
C       -8.88401049       5.04914972      12.20904893
C       -9.50412987       5.39440720      13.18407983
Br     -10.50681045       5.95265933      14.76062231
C        1.78176406      -1.78176406       1.78176406
C        2.16767743      -1.44020396       3.05139617
C        2.99410497      -2.45278091       3.62522364
C        3.19428428      -3.52866329       2.77440340
S        2.37876062      -3.28363131       1.28023421
C        3.98922507      -4.72845860       3.05155445
O        4.66607250      -4.81539055       4.07154188
N        3.87589826      -5.70771699       2.09031618
C        4.54040879      -6.89634259       2.14479254
S        4.18895831      -7.93512725       0.83599246
C        5.27371666      -9.09206186       1.49211850
C        5.82817721      -8.60318030       2.65969341
N        5.39173636      -7.34094567       3.02960860
C        6.83233198      -9.34282777       3.49117002
C        7.36196736      -8.83640134       4.66213238
C        8.30384468      -9.72936409       5.25914723
C        8.44417841     -10.86965492       4.51147105
S        7.47034304     -10.88725868       3.12570663
H        1.88582020      -0.52144520       3.55139352
H        3.42364032      -2.40440190       4.62052169
H        3.26989412      -5.55702548       1.29809117
H        5.44327708     -10.03760974       0.99816782
H        7.08684364      -7.86931294       5.07003722
H        8.83782674      -9.52945294       6.18069839
C        9.32997462     -11.94916608       4.86306844
C       10.07182895     -12.85325668       5.15753126
Br      11.27134466     -14.31509470       5.63365272
C       -0.00445707       0.01189536      -1.78238275
H       -0.66409135       0.67374010      -2.43557963
H        0.65740317      -0.63156657      -2.45157240
C       -0.90989263      -0.90692880      -0.91072765
C        0.90977584       0.90977584      -0.90977584
C       -0.00465871       1.77757030       0.00794375
H       -0.66225468       2.44313916      -0.64384735
H        0.64322798       2.43503045       0.67728295
C       -1.78241447       0.00034974      -0.00472694
H       -2.45427497      -0.65498947       0.64260836
H       -2.43311707       0.67328779      -0.65473579
C       -0.91132561       0.90220522       0.91563759
C       -0.01476271      -0.02253852       1.78660255
H       -0.67934791      -0.69751639       2.42135241
H        0.63392994       0.61504881       2.47327442
C        0.01484550      -1.77751727      -0.01636693
H        0.67870853      -2.42144646      -0.68295456
H       -0.62264859      -2.45592969       0.64226336
C        1.78714474       0.01002794       0.00389507
H        2.44202412       0.67113390       0.66197326
H        2.45385902      -0.65136977      -0.64189061
C        0.91606151      -0.90478549       0.90901405
