194
Properties=species:S:1:pos:R:3 pbc="F F F"
C        1.79171748       1.79171748      -1.79171748
C        1.96582304       1.46958001      -3.13787834
C        2.76888912       2.27681780      -3.94786931
C        3.39889200       3.40369235      -3.40558830
C        3.20820910       3.72709761      -2.05546219
C        2.40869434       2.91677321      -1.24567990
C        4.24194833       4.30088921      -4.24320280
O        4.37828600       5.47534079      -3.91582978
N        4.89589979       3.68180103      -5.29947257
C        5.74385574       4.38823725      -6.14591687
C        7.15219448       3.86222625      -6.16368851
O        7.44874302       2.85518609      -5.52162616
N        8.07089490       4.52624971      -6.91939743
H        9.01372914       4.16318807      -6.89277535
C        7.76081094       5.64900933      -7.68711398
C        8.78002882       6.28453579      -8.39961374
C        8.48790123       7.41197324      -9.16544540
C        7.18006766       7.88886412      -9.21489497
C        6.15884545       7.24759619      -8.51044491
C        6.43779270       6.11285163      -7.73284259
C        5.37456322       5.40867471      -6.96115872
C        3.92542770       5.67000831      -7.16977132
C        3.23896057       4.93684585      -8.15119295
C        1.88011287       5.15915239      -8.38125700
C        1.19577872       6.11241614      -7.63049910
C        1.87112013       6.85285234      -6.66069504
C        3.23439330       6.64161207      -6.43961843
H        1.47230361       0.60101150      -3.56659968
H        2.87129840       2.03263726      -5.00249726
H        3.68261315       4.61048654      -1.63154933
H        2.27038345       3.17570786      -0.19859547
H        5.26553965       2.76781265      -5.03911261
H        9.80232918       5.91747653      -8.36136433
H        9.28257035       7.91161966      -9.71335094
H        5.14782584       7.64454433      -8.56518754
H        3.76157401       4.19028343      -8.74453553
H        1.35730928       4.58825561      -9.14328490
H        0.13491121       6.28004582      -7.80023267
H        1.33777620       7.59128844      -6.06928580
H        3.74769049       7.22099243      -5.67478626
C        6.87975027       9.05874476      -9.99897963
C        6.62823446      10.03851980     -10.65565053
Br       6.22155466      11.62273317     -11.71743184
C       -1.79171748      -1.79171748      -1.79171748
C       -1.21340380      -2.54972085      -2.81015674
C       -2.01731393      -3.36037161      -3.61589070
C       -3.40027883      -3.40667236      -3.40122145
C       -3.97118285      -2.65187002      -2.36771603
C       -3.16697328      -1.83841784      -1.56575633
C       -4.28542749      -4.27718996      -4.22342290
O       -5.34626443      -4.67248741      -3.75070473
N       -3.86000409      -4.48972479      -5.52744452
C       -4.60307444      -5.25418122      -6.42075420
C       -5.02533333      -4.50114555      -7.65163036
O       -4.65783257      -3.34000348      -7.82771922
N       -5.80764265      -5.15023912      -8.55866026
H       -6.09478663      -4.61107148      -9.36383446
C       -6.21238231      -6.47672508      -8.40782685
C       -7.04609602      -7.04421836      -9.37386397
C       -7.46538650      -8.36615737      -9.23377601
C       -7.04309138      -9.10782218      -8.13291319
C       -6.20130598      -8.54363582      -7.17194476
C       -5.77274800      -7.21298477      -7.29775415
C       -4.88163269      -6.57584057      -6.28692339
C       -4.16458304      -7.35671631      -5.24390798
C       -2.89845642      -7.88502476      -5.54351820
C       -2.19789162      -8.62966100      -4.59296963
C       -2.75465767      -8.84905689      -3.33497940
C       -4.01592922      -8.33726769      -3.03147058
C       -4.72437404      -7.60431928      -3.98693048
H       -0.13932229      -2.52462348      -2.97596903
H       -1.55055908      -3.97009048      -4.38578336
H       -5.04360272      -2.69541926      -2.18562703
H       -3.62135290      -1.25463278      -0.76870110
H       -3.47963644      -3.64309256      -5.94973591
H       -7.38031640      -6.46810473     -10.23274892
H       -8.12098981      -8.80535676      -9.98119438
H       -5.89051959      -9.14574273      -6.32129540
H       -2.45290019      -7.72156022      -6.52193256
H       -1.21953008      -9.03558449      -4.83373523
H       -2.20653290      -9.41959558      -2.58906122
H       -4.44855691      -8.50094738      -2.04884616
H       -5.70443547      -7.20435136      -3.73468236
C       -7.48325606     -10.47073318      -7.98348542
C       -7.85189399     -11.61217114      -7.85833966
Br      -8.44795033     -13.45777979      -7.65598955
C       -1.79171748       1.79171748       1.79171748
C       -3.17895937       1.74139023       1.65293179
C       -3.98827853       2.54418304       2.46111466
C       -3.40484000       3.39874132       3.40459132
C       -2.01109008       3.43351216       3.54616666
C       -1.20289921       2.63371728       2.73453096
C       -4.23559033       4.25052174       4.29992827
O       -3.78359300       4.60040388       5.38545969
N       -5.44792335       4.66401692       3.76523313
C       -6.31261635       5.49119456       4.47419896
C       -6.60647373       6.79188874       3.77974676
O       -6.15049883       7.01608523       2.65897121
N       -7.39814126       7.69383015       4.42457063
H       -7.55850382       8.56794146       3.94324728
C       -7.96042176       7.45733425       5.67917824
C       -8.72828605       8.45917685       6.27671545
C       -9.29077721       8.24122383       7.53331884
C       -9.08405145       7.02314564       8.17662966
C       -8.32452236       6.01745053       7.57491367
C       -7.74947698       6.22291212       6.31109782
C       -6.92589582       5.17535981       5.64314102
C       -6.88204640       3.76629326       6.11686767
C       -7.83702645       2.85818162       5.63179131
C       -7.83261590       1.52910071       6.05880564
C       -6.87232573       1.09600646       6.97036178
C       -5.92615196       1.99279118       7.46572436
C       -5.93860625       3.32669438       7.05032316
H       -3.63802000       1.07355985       0.92833494
H       -5.06899862       2.47263960       2.36479470
H       -1.55200352       4.08417641       4.28846908
H       -0.12235587       2.67127303       2.85105788
H       -5.36507628       4.92453215       2.78285649
H       -8.88953888       9.41211251       5.77951864
H       -9.88146547       9.02393962       8.00213586
H       -8.17726570       5.07788224       8.10240978
H       -8.59238679       3.18360023       4.92040594
H       -8.57583556       0.83376032       5.67925391
H       -6.85995771       0.05877173       7.29646026
H       -5.17214329       1.65539765       8.17080950
H       -5.19013588       4.01433162       7.43900167
C       -9.65776260       6.80110228       9.47860979
C      -10.13824568       6.61514096      10.56901815
Br     -10.91514619       6.31445723      12.33211624
C        1.79171748      -1.79171748       1.79171748
C        2.74084790      -2.62839147       1.20404202
C        3.55163447      -3.43330713       2.00863463
C        3.40669653      -3.40045774       3.40101837
C        2.45958145      -2.54759603       3.98359141
C        1.64657458      -1.74668320       3.17788966
C        4.26907760      -4.22536853       4.29159422
O        4.47103801      -3.85485634       5.44356222
N        4.70142671      -5.42731555       3.74843114
C        5.48551712      -6.31574386       4.47674889
C        4.85856867      -7.67147529       4.64806528
O        3.78224443      -7.93191388       4.11139696
N        5.52634955      -8.59213404       5.39805845
H        5.06911879      -9.48588855       5.51468523
C        6.76439809      -8.34213718       5.99039897
C        7.35369343      -9.33725999       6.77322492
C        8.58699126      -9.10030546       7.37802315
C        9.22003651      -7.87385753       7.18993271
C        8.63561491      -6.88226291       6.39900873
C        7.39293011      -7.10495309       5.78560373
C        6.73585368      -6.06627178       4.94227118
C        7.44970039      -4.85298025       4.46252669
C        8.15776557      -4.91766239       3.25157143
C        8.84630763      -3.80181062       2.77240400
C        8.82979313      -2.61204056       3.49686028
C        8.13803623      -2.54094140       4.70568988
C        7.46072711      -3.66130549       5.19359120
H        2.86398339      -2.65173538       0.12419602
H        4.30871980      -4.05756326       1.54014985
H        2.35263677      -2.50585097       5.06616128
H        0.91285127      -1.09101178       3.64082373
H        3.96887321      -5.89151692       3.21207479
H        6.86172781     -10.29446076       6.92498146
H        9.04181961      -9.87161598       7.99410536
H        9.15151290      -5.93323842       6.27280640
H        8.17913620      -5.84051262       2.67674414
H        9.39239908      -3.86116689       1.83528383
H        9.35634127      -1.73823671       3.12061172
H        8.11783182      -1.61220382       5.26831480
H        6.91877147      -3.59017683       6.13452088
C       10.48997185      -7.62568737       7.82181545
C       11.55354270      -7.41784485       8.35101724
Br      13.27324680      -7.08178108       9.20669178
C       -0.00445707       0.01189536      -1.78238275
H       -0.66409135       0.67374010      -2.43557963
H        0.65740317      -0.63156657      -2.45157240
C       -0.90989263      -0.90692880      -0.91072765
C        0.90977584       0.90977584      -0.90977584
C       -0.00465871       1.77757030       0.00794375
H       -0.66225468       2.44313916      -0.64384735
H        0.64322798       2.43503045       0.67728295
C       -1.78241447       0.00034974      -0.00472694
H       -2.45427497      -0.65498947       0.64260836
H       -2.43311707       0.67328779      -0.65473579
C       -0.91132561       0.90220522       0.91563759
C       -0.01476271      -0.02253852       1.78660255
H       -0.67934791      -0.69751639       2.42135241
H        0.63392994       0.61504881       2.47327442
C        0.01484550      -1.77751727      -0.01636693
H        0.67870853      -2.42144646      -0.68295456
H       -0.62264859      -2.45592969       0.64226336
C        1.78714474       0.01002794       0.00389507
H        2.44202412       0.67113390       0.66197326
H        2.45385902      -0.65136977      -0.64189061
C        0.91606151      -0.90478549       0.90901405
