193
Properties=species:S:1:pos:R:3 pbc="F F F"
C        0.00000000       0.00000000       0.00000000
C        6.39135055       7.07963890      -2.06176214
O        5.32749168       6.30257609      -1.51128667
C        4.08140521       6.77229045      -1.81090688
O        3.85156540       7.81174179      -2.41201351
C        3.02057562       5.76736946      -1.35963686
N        2.15268492       5.37345467      -2.49293961
C        2.93091273       4.66500213      -3.52293607
H        3.88031355       5.20072435      -3.65278217
N        3.35790845       3.30629956      -3.23645724
C        2.48567258       2.49972173      -2.51911422
C        2.78502461       1.14457065      -2.33438517
C        1.98084181       0.33257086      -1.53084787
C        0.88133591       0.88133591      -0.88133591
C        0.58274238       2.23286715      -1.02797101
C        1.38721688       3.05277628      -1.84381472
C        1.03382752       4.52445447      -2.02731856
H        0.76408943       4.86862125      -1.01582648
C       -0.24283462       4.78756579      -2.83860131
C       -0.88169485       6.03573394      -2.71077882
C       -2.06156865       6.31522315      -3.40297762
C       -2.62365244       5.35323611      -4.23728960
C       -1.99874330       4.11847373      -4.39110284
C       -0.81439092       3.83971386      -3.70417067
C        2.34374297       4.83917614      -4.93836040
C        2.34678584       3.82266420      -5.90951731
C        1.90410199       4.07142506      -7.21394567
C        1.44090202       5.33684350      -7.56344656
Br       0.85225793       5.66906988      -9.32823615
C        1.41983346       6.36014935      -6.62392009
C        1.88021113       6.11476810      -5.32850567
H        7.33283210       6.70010896      -1.65529713
H        6.29639333       8.13502786      -1.78825694
H        6.41188645       6.96115783      -3.15004521
H        2.43712120       6.28142444      -0.58593010
H        3.49994416       4.90222482      -0.88656100
H        3.92861088       2.86041723      -3.94141877
H        3.65854893       0.70936288      -2.81291303
H        2.22898576      -0.71819403      -1.41224169
H       -0.28133257       2.65686913      -0.52120821
H       -0.45152272       6.80273523      -2.06966289
H       -2.53928951       7.28483196      -3.29186733
H       -3.54346721       5.56769312      -4.77422224
H       -2.43045767       3.36954476      -5.04974461
H       -0.34694492       2.87063304      -3.85968564
H        2.69690728       2.82161022      -5.67679477
H        1.93051235       3.27147449      -7.94914423
H        1.05768725       7.35116603      -6.88285576
H        1.87293049       6.93448859      -4.60979123
C       -4.63808569      -2.76751947      -8.12714642
O       -4.07193183      -2.01669837      -7.05272424
C       -4.99481734      -1.44322296      -6.22656225
O       -6.20387452      -1.46511755      -6.40632863
C       -4.30103863      -0.84420067      -5.00234264
N       -4.86664671      -1.40046438      -3.75196812
C       -4.60881347      -2.84751573      -3.66252173
H       -4.79842423      -3.28320689      -4.65218894
N       -3.25294034      -3.27871099      -3.36901393
C       -2.51444864      -2.50753073      -2.48252915
C       -1.25571670      -2.94999111      -2.05827262
C       -0.44572677      -2.14879141      -1.24974236
C       -0.88133591      -0.88133591      -0.88133591
C       -2.11679009      -0.41045711      -1.31633333
C       -2.93943202      -1.21898772      -2.12538813
C       -4.30629223      -0.71002417      -2.56928415
H       -4.12634946       0.33761402      -2.85980172
C       -5.34751934      -0.58826629      -1.44754683
C       -6.46394674       0.24612777      -1.64699894
C       -7.42429353       0.41545104      -0.64778963
C       -7.28772334      -0.24757516       0.56842523
C       -6.20003460      -1.09077569       0.77997702
C       -5.24163471      -1.26638469      -0.22147421
C       -5.68194331      -3.59460486      -2.84473134
C       -5.39605776      -4.68206671      -2.00084289
C       -6.42328033      -5.39480053      -1.37139186
C       -7.75063776      -5.02353239      -1.56702193
Br      -9.13373237      -5.99462042      -0.72121116
C       -8.06434005      -3.94924762      -2.39031523
C       -7.03895062      -3.25191228      -3.03262200
H       -3.82597114      -3.06694514      -8.79532192
H       -5.35341900      -2.16784080      -8.69841833
H       -5.11517613      -3.67202158      -7.73589179
H       -4.48010720       0.23645127      -5.06081980
H       -3.21794197      -1.00007786      -5.07071016
H       -3.09510255      -4.27693830      -3.35840602
H       -0.89037387      -3.92721121      -2.36323976
H        0.52229822      -2.51974056      -0.92559109
H       -2.45536096       0.58041743      -1.02180125
H       -6.59129698       0.76534611      -2.59492452
H       -8.27942318       1.06308552      -0.82107213
H       -8.03227064      -0.11453730       1.34835979
H       -6.09667814      -1.61724062       1.72508706
H       -4.41370878      -1.94333727      -0.02632771
H       -4.37436360      -5.00155333      -1.81939535
H       -6.17529433      -6.24045430      -0.73538244
H       -9.09583922      -3.64718680      -2.54868303
H       -7.30516776      -2.42310434      -3.68893821
C       -5.31604567       7.82594660       2.39075931
O       -4.31378460       6.94527540       1.88229444
C       -3.10068370       7.06807611       2.49584274
O       -2.82651652       7.90680013       3.34200405
C       -2.16390801       5.95181367       2.03186026
N       -1.65133196       5.18044805       3.18729919
C       -2.75089034       4.48794821       3.88001239
H       -3.59405824       5.18725714       3.95250469
N       -3.34043125       3.33014401       3.23009000
C       -2.49051380       2.49316277       2.52083195
C       -2.97938947       1.29249005       1.99210091
C       -2.17674706       0.48069549       1.18681800
C       -0.88133591       0.88133591       0.88133591
C       -0.38545749       2.08551896       1.37260409
C       -1.18967115       2.90276096       2.19137578
C       -0.62785943       4.20351528       2.75422584
H       -0.08516805       4.65519253       1.90817657
C        0.46507631       4.02993049       3.81847829
C        1.32912962       5.10925819       4.08468934
C        2.35836705       4.99396892       5.02103025
C        2.54181125       3.79857895       5.71010557
C        1.68781896       2.72438925       5.47426298
C        0.65325892       2.84042071       4.54233183
C       -2.46793433       4.27263116       5.38071403
C       -2.86628122       3.12475619       6.08792994
C       -2.68412962       3.03259837       7.47274474
C       -2.09041790       4.08170903       8.16906516
Br      -1.85460632       3.95513578      10.03982186
C       -1.68052568       5.22647637       7.49690085
C       -1.88102296       5.32415386       6.11830809
H       -6.19740732       7.74175508       1.74907580
H       -4.97602955       8.86608256       2.37756602
H       -5.59627252       7.52215329       3.40466368
H       -1.34227292       6.45487720       1.50732562
H       -2.67434073       5.31221792       1.30217134
H       -4.12252309       2.90195004       3.70597374
H       -4.00017209       0.98163805       2.19901470
H       -2.57660397      -0.45116980       0.79759926
H        0.63046825       2.39275416       1.13445887
H        1.19481495       6.05408966       3.56160069
H        3.01438343       5.83861393       5.21317929
H        3.34417142       3.70589477       6.43672479
H        1.82299134       1.79341418       6.01840885
H       -0.00257527       1.98607853       4.39471996
H       -3.32994205       2.28340443       5.58196580
H       -3.01425087       2.13975107       7.99712913
H       -1.21289390       6.05086870       8.02794645
H       -1.56933506       6.23721810       5.61065714
C        4.77069775      -2.68370848       8.07834536
O        4.19635617      -1.94537447       6.99962381
C        5.11202618      -1.41539284       6.13718353
O        6.32430131      -1.46306932       6.28795007
C        4.40270331      -0.82922759       4.91565104
N        4.92322112      -1.42971073       3.66614735
C        4.62808114      -2.87162588       3.61914392
H        4.83166595      -3.28768846       4.61446566
N        3.25520951      -3.27586928       3.36958647
C        2.51382052      -2.50831208       2.48237592
C        1.23449393      -2.92942125       2.10006525
C        0.42432642      -2.12818066       1.29175347
C        0.88133591      -0.88133591       0.88133591
C        2.13835883      -0.43098320       1.27423850
C        2.96100527      -1.23985320       2.08294942
C        4.35050364      -0.75450146       2.48059545
H        4.20342697       0.30406351       2.74917370
C        5.36606927      -0.68611234       1.33115086
C        6.50711026       0.12477012       1.48247777
C        7.44606050       0.24569728       0.45626890
C        7.26308004      -0.44312893      -0.73933569
C        6.15024388      -1.26382426      -0.90323487
C        5.21314227      -1.39102733       0.12532402
C        5.66196126      -3.66495148       2.79436677
C        5.32871386      -4.76516410       1.98508939
C        6.32225108      -5.51842417       1.34879748
C        7.66272275      -5.17574288       1.50272645
Br       9.00022625      -6.20134857       0.64798914
C        8.02293520      -4.08989492       2.29107279
C        7.03117591      -3.35175672       2.94055226
H        3.96846108      -2.94641776       8.77335935
H        5.51445262      -2.08833673       8.61688877
H        5.21571247      -3.60909235       7.69828467
H        4.60943295       0.24772246       4.94276524
H        3.31817607      -0.95631684       5.01423707
H        3.07289911      -4.26980916       3.38773861
H        0.85319127      -3.88950509       2.43812848
H       -0.56023075      -2.48263938       1.00062479
H        2.49349866       0.54366894       0.94691506
H        6.67067994       0.66357393       2.41376940
H        8.32076249       0.87581722       0.59246452
H        7.99095054      -0.34774116      -1.54024355
H        6.01054723      -1.81040048      -1.83211601
H        4.36436803      -2.05165873      -0.03265300
H        4.29533428      -5.06337786       1.83660013
H        6.03795511      -6.37286027       0.74031569
H        9.06511360      -3.80990297       2.41669247
H        7.33378855      -2.51411675       3.56930500
