170
Properties=species:S:1:pos:R:3 pbc="F F F"
C        1.79145732       1.79145732      -1.79145732
C        3.01081022       1.30902411      -2.25680738
C        3.83025152       2.12565185      -3.04724953
C        3.43873353       3.42732016      -3.40879801
C        2.19732399       3.88287128      -2.91472159
C        1.38087779       3.07927335      -2.11249769
C        4.29430503       4.33755492      -4.20764111
N        4.25674286       5.62926209      -3.76380603
C        5.03594521       6.53778795      -4.37478845
C        5.02769100       7.85745852      -3.93994334
C        5.83047733       8.82654748      -4.54327806
C        6.65550078       8.46846136      -5.60172473
C        6.66771664       7.14615408      -6.04618380
C        5.87200121       6.17575770      -5.45011193
N        5.90917031       4.91347530      -5.90488675
C        5.11167841       3.98782449      -5.29511986
C        5.21657674       2.65645403      -5.91816343
C        4.09348548       1.96131824      -6.39875124
C        4.23050567       0.71273576      -7.01735629
C        5.49490821       0.14904124      -7.17146087
C        6.62436414       0.82008281      -6.71526923
C        6.48295107       2.06546559      -6.09766030
H        3.34374808       0.30625547      -1.99988470
H        4.79425304       1.72680208      -3.35623781
H        1.86467253       4.89551984      -3.14289105
H        0.43989695       3.47488361      -1.73964927
H        4.38248053       8.13414044      -3.10925285
H        5.80985877       9.85274894      -4.18515986
H        7.28763707       9.21115303      -6.08179341
H        7.31106300       6.86258295      -6.87607072
H        3.09818206       2.39375324      -6.30982227
H        3.34682844       0.19698080      -7.38367008
H        7.61650171       0.39532957      -6.84282962
H        7.37601864       2.59207642      -5.76215558
C        5.63642091      -1.13030941      -7.81708929
C        5.75493779      -2.20176558      -8.35780310
Br       5.94656956      -3.93421959      -9.23209160
C       -1.79145732      -1.79145732      -1.79145732
C       -2.01750941      -3.11876635      -1.44036595
C       -2.80810405      -3.93424084      -2.26080802
C       -3.40768447      -3.43574152      -3.43142571
C       -3.15231699      -2.08600507      -3.75659479
C       -2.35173130      -1.27001786      -2.95089967
C       -4.21581284      -4.27575447      -4.34793376
N       -3.97855010      -4.00521401      -5.66604687
C       -4.61217152      -4.74252753      -6.59382255
C       -4.38409920      -4.49843450      -7.94255915
C       -5.01621321      -5.24987394      -8.93421572
C       -5.89333277      -6.26311306      -8.56924105
C       -6.12992183      -6.51286726      -7.21726542
C       -5.50381544      -5.76961336      -6.22444204
N       -5.75624789      -6.03758860      -4.93369587
C       -5.12363071      -5.28474798      -3.98624406
C       -5.52191029      -5.65320342      -2.61608049
C       -6.03474703      -4.71417815      -1.70462978
C       -6.43687799      -5.10272740      -0.42099233
C       -6.33985494      -6.43823947      -0.03731592
C       -5.84650870      -7.39027067      -0.92293681
C       -5.44544565      -6.99797881      -2.20265249
H       -1.57272691      -3.53672790      -0.54043345
H       -2.92646478      -4.97705281      -1.97377534
H       -3.57035277      -1.66274891      -4.66998175
H       -2.16730397      -0.24065323      -3.24647263
H       -3.69477185      -3.70602743      -8.22507454
H       -4.82112058      -5.04315951      -9.98348747
H       -6.39291810      -6.85820579      -9.32945962
H       -6.81767409      -7.30421997      -6.92782260
H       -6.14117309      -3.66919880      -1.99138568
H       -6.83345925      -4.35806829       0.26404821
H       -5.77950881      -8.43692125      -0.63823084
H       -5.07946934      -7.75503755      -2.89574375
C       -6.76329752      -6.83921693       1.27931366
C       -7.11793068      -7.17503556       2.38199094
Br      -7.69134251      -7.71802588       4.16492683
C       -1.79145732       1.79145732       1.79145732
C       -1.98397806       3.12977445       1.46288921
C       -2.77468325       3.94464676       2.28382289
C       -3.40760838       3.43525923       3.43198409
C       -3.18570428       2.07444459       3.73476798
C       -2.38532072       1.25856494       2.92876316
C       -4.21729795       4.27310910       4.34909400
N       -4.01217900       3.97172335       5.66590863
C       -4.64969737       4.70315919       6.59566504
C       -4.45386030       4.42778870       7.94344386
C       -5.09088467       5.17204687       8.93737133
C       -5.94016143       6.20987445       8.57565098
C       -6.14433394       6.49114050       7.22458007
C       -5.51312876       5.75520933       6.22953274
N       -5.73401618       6.05379501       4.93972117
C       -5.09741143       5.30724901       3.98996231
C       -5.46048631       5.71080236       2.61990554
C       -5.97329791       4.80061825       1.67963879
C       -6.34157541       5.22261862       0.39640369
C       -6.21032848       6.56324236       0.04183949
C       -5.71621867       7.48733415       0.95616337
C       -5.34900352       7.06169211       2.23538132
H       -1.51286567       3.55641955       0.58060303
H       -2.86649698       4.99513033       2.01566562
H       -3.63045807       1.64169866       4.63092669
H       -2.22737301       0.22001656       3.20704026
H       -3.78624986       3.61614167       8.22348229
H       -4.92121075       4.94064891       9.98590791
H       -6.44312757       6.79975785       9.33769809
H       -6.81025062       7.30183915       6.93762690
H       -6.10621806       3.75252375       1.94301577
H       -6.73890494       4.49987739      -0.31130301
H       -5.62271719       8.53785661       0.69408711
H       -4.98218359       7.79728775       2.95077930
C       -6.59899463       6.99875189      -1.27454574
C       -6.92450254       7.36349113      -2.37701836
Br      -7.45082129       7.95324362      -4.15962336
C        1.79145732      -1.79145732       1.79145732
C        3.16972630      -1.60098644       1.80592897
C        3.98119309      -2.42433811       2.59762170
C        3.43241509      -3.43487319       3.40756342
C        2.03119501      -3.60030897       3.36341287
C        1.21608071      -2.79258854       2.56397957
C        4.25885588      -4.35393401       4.22671116
N        3.80177043      -5.64140356       4.20663699
C        4.50196001      -6.57845892       4.86810268
C        4.06845431      -7.89855786       4.85808069
C        4.77464179      -8.90054036       5.52512072
C        5.93501530      -8.57505164       6.21561993
C        6.37564420      -7.25151943       6.23289087
C        5.67846878      -6.24878894       5.57061312
N        6.13181916      -4.98605098       5.60966222
C        5.41886745      -4.02740043       4.94835488
C        6.00055686      -2.68280443       5.10783292
C        5.25721197      -1.59624041       5.60010258
C        5.84877752      -0.33901038       5.77280983
C        7.19474992      -0.15648936       5.46417104
C        7.95666125      -1.21709474       4.98596018
C        7.36203401      -2.46982733       4.81421562
H        3.62797233      -0.82693726       1.19497867
H        5.05726932      -2.27081219       2.54921142
H        1.56245866      -4.39007877       3.95054599
H        0.14314364      -2.96430213       2.54698406
H        3.16086854      -8.15064775       4.31435753
H        4.41843216      -9.92735219       5.50198321
H        6.49715373      -9.34399020       6.73943959
H        7.28281074      -6.99266324       6.77424269
H        4.20984810      -1.72215654       5.86975294
H        5.25336915       0.48431476       6.15842494
H        9.01082565      -1.08868048       4.75515477
H        7.97286044      -3.29908612       4.45830409
C        7.80542508       1.13403977       5.65181547
C        8.31686553       2.21485791       5.80896768
Br       9.14382148       3.96244943       6.06306951
C       -0.00445707       0.01189536      -1.78238275
H       -0.66409135       0.67374010      -2.43557963
H        0.65740317      -0.63156657      -2.45157240
C       -0.90989263      -0.90692880      -0.91072765
C        0.90977584       0.90977584      -0.90977584
C       -0.00465871       1.77757030       0.00794375
H       -0.66225468       2.44313916      -0.64384735
H        0.64322798       2.43503045       0.67728295
C       -1.78241447       0.00034974      -0.00472694
H       -2.45427497      -0.65498947       0.64260836
H       -2.43311707       0.67328779      -0.65473579
C       -0.91132561       0.90220522       0.91563759
C       -0.01476271      -0.02253852       1.78660255
H       -0.67934791      -0.69751639       2.42135241
H        0.63392994       0.61504881       2.47327442
C        0.01484550      -1.77751727      -0.01636693
H        0.67870853      -2.42144646      -0.68295456
H       -0.62264859      -2.45592969       0.64226336
C        1.78714474       0.01002794       0.00389507
H        2.44202412       0.67113390       0.66197326
H        2.45385902      -0.65136977      -0.64189061
C        0.91606151      -0.90478549       0.90901405
