133
Properties=species:S:1:pos:R:3 pbc="F F F"
C        0.00000000       0.00000000       0.00000000
C        0.88154145       0.88154145      -0.88154145
C        2.20683011       0.52137124      -1.11448743
C        3.00941150       1.32164552      -1.93389110
C        2.49551930       2.48941900      -2.52070587
C        1.16206843       2.84199568      -2.26155897
C        0.35465178       2.03863016      -1.45051218
C        3.30752127       3.32277064      -3.39540936
N        3.13249175       4.56522478      -3.79990559
N        4.16405937       4.84429010      -4.67547002
C        4.88594732       3.74613293      -4.75613007
C        6.06663696       3.44756402      -5.59721156
O        7.26160167       3.70940014      -4.84149107
C        7.72543694       2.66733998      -4.11201509
O        7.21054055       1.56657635      -4.02294094
C        8.97601154       3.03884055      -3.41754327
C        9.51491429       2.13914076      -2.50445774
N       10.66427892       2.35744284      -1.81784809
C       11.30393783       3.52627094      -2.06063407
C       10.84265555       4.48064362      -2.95527053
C        9.65874249       4.23728842      -3.64568521
O        4.40807345       2.73801570      -3.96380852
H        2.62484223      -0.37808048      -0.66943313
H        4.04259767       1.02414511      -2.10829978
H        0.73846404       3.74223419      -2.70532754
H       -0.67956506       2.32317772      -1.27476274
H        6.08170146       4.11754386      -6.46311783
H        6.04620740       2.42261152      -5.98506178
H        9.03047722       1.18908309      -2.28830492
H       12.22279497       3.66969537      -1.49839662
H        9.28188098       4.96976224      -4.35385135
C       11.57718055       5.69991819      -3.17308359
C       12.19234524       6.72106065      -3.35550203
Br      13.18701452       8.37216164      -3.65045722
C       -0.88154145      -0.88154145      -0.88154145
C       -0.39426512      -2.10021149      -1.34821217
C       -1.20761359      -2.91375972      -2.14357481
C       -2.51003464      -2.51281202      -2.48279752
C       -2.97644723      -1.27484851      -2.01432735
C       -2.16886279      -0.46389297      -1.21103836
C       -3.38033791      -3.35580961      -3.28955375
N       -4.48440365      -3.06469770      -3.94852078
N       -4.94661720      -4.24989296      -4.48730933
C       -4.10055966      -5.18324607      -4.10440458
C       -4.13819763      -6.64595135      -4.32726354
O       -3.35621956      -6.96534822      -5.49092510
C       -2.04340081      -7.20206690      -5.25932429
O       -1.48105008      -7.13879976      -4.18020800
C       -1.35390445      -7.56266050      -6.51583042
C        0.03011056      -7.69531198      -6.49331137
N        0.77347041      -8.03801938      -7.57502087
C        0.09981681      -8.26231809      -8.72834156
C       -1.27841446      -8.15657510      -8.84358014
C       -2.02072566      -7.79945459      -7.72153587
O       -3.07357542      -4.68954625      -3.34677599
H        0.61120980      -2.42928966      -1.09811501
H       -0.81239278      -3.86497648      -2.49767330
H       -3.98331461      -0.94068611      -2.26202505
H       -2.55559576       0.48460914      -0.84738877
H       -5.16595596      -6.96112611      -4.53528107
H       -3.80363810      -7.20463434      -3.44560826
H        0.60299098      -7.52725715      -5.58359907
H        0.72259996      -8.53846819      -9.57501873
H       -3.10161869      -7.71485263      -7.78902326
C       -1.93331208      -8.41769178     -10.09917848
C       -2.48178883      -8.63637701     -11.15074208
Br      -3.36862935      -8.98997252     -12.85103150
C       -0.88154145       0.88154145       0.88154145
C       -1.99365645       0.33295762       1.51607472
C       -2.79223724       1.13769443       2.33501646
C       -2.48884765       2.49624650       2.52055003
C       -1.37236935       3.03255681       1.86069693
C       -0.56673168       2.22803206       1.04903038
C       -3.29365608       3.34457726       3.38746793
N       -3.36657447       4.65809144       3.47295622
N       -4.23580831       4.93851345       4.50949773
C       -4.61850107       3.77562803       4.99408122
C       -5.48674653       3.47123764       6.15342836
O       -6.83620467       3.28191554       5.69437266
C       -7.15358328       2.01550528       5.33570345
O       -6.40149109       1.05683223       5.34173452
C       -8.57143950       1.93431545       4.92664041
C       -9.03360211       0.73988794       4.38502274
N      -10.31476673       0.53647877       3.98832436
C      -11.17114887       1.57380783       4.14588614
C      -10.80014461       2.79941840       4.67900669
C       -9.47911297       2.98713377       5.07546938
O       -4.06765040       2.71576147       4.32648579
H       -2.24690514      -0.71614654       1.38543628
H       -3.65638409       0.69237708       2.82628139
H       -1.11430030       4.08320526       1.98852020
H        0.30145541       2.66097507       0.55885573
H       -5.49831053       4.32431051       6.83974210
H       -5.12478527       2.60697631       6.72211912
H       -8.37485406      -0.11531769       4.24832886
H      -12.19005832       1.37837863       3.82245001
H       -9.16843889       3.93795397       5.49910171
C      -11.76421005       3.85876456       4.82720773
C      -12.57161485       4.74596696       4.95132611
Br     -13.87712014       6.18049821       5.15201502
C        0.88154145      -0.88154145       0.88154145
C        0.36553416      -2.05880535       1.41834928
C        1.17811800      -2.87307921       2.21375092
C        2.50877682      -2.51390669       2.48296067
C        3.00465892      -1.31657715       1.94438702
C        2.19739123      -0.50545396       1.14094893
C        3.37750918      -3.35951570       3.28867638
N        4.51916652      -3.08874245       3.88971316
N        4.95541900      -4.26961724       4.45878324
C        4.05702028      -5.18124948       4.14994056
C        4.04492860      -6.63405488       4.43242905
O        3.30033716      -6.87304555       5.63911017
C        1.97045424      -7.06348698       5.47085077
O        1.36622129      -7.02022954       4.41360701
C        1.32042982      -7.34374696       6.76821858
C       -0.06753285      -7.41886408       6.80718156
N       -0.77795990      -7.68605797       7.93147178
C       -0.06599183      -7.89175984       9.06507484
C        1.31901100      -7.83951966       9.12003903
C        2.02727630      -7.55952112       7.95491869
O        3.01984103      -4.67577051       3.41428612
H       -0.66203365      -2.35512399       1.22310453
H        0.76006976      -3.79176077       2.62321203
H        4.03372110      -1.01533834       2.13696632
H        2.60645474       0.41048909       0.72240974
H        5.06696749      -6.98352926       4.61186639
H        3.65130135      -7.21330143       3.58927792
H       -0.67092211      -7.26371649       5.91507085
H       -0.66324726      -8.10706836       9.94706586
H        3.11258464      -7.51780609       7.97510384
C        2.01507113      -8.07705963      10.35805158
C        2.59802148      -8.27599935      11.39488709
Br       3.54060290      -8.59766806      13.07136241
