125
Properties=species:S:1:pos:R:3 pbc="F F F"
C        0.00000000       0.00000000       0.00000000
C        0.88154145       0.88154145      -0.88154145
C        2.20683011       0.52137124      -1.11448743
C        3.00941150       1.32164552      -1.93389110
C        2.49551930       2.48941900      -2.52070587
C        1.16206843       2.84199568      -2.26155897
C        0.35465178       2.03863016      -1.45051218
C        3.30752127       3.32277064      -3.39540936
N        3.13249175       4.56522478      -3.79990559
N        4.16405937       4.84429010      -4.67547002
C        4.88594732       3.74613293      -4.75613007
C        6.06663696       3.44756402      -5.59721156
O        7.26160167       3.70940014      -4.84149107
C        7.72543694       2.66733998      -4.11201509
O        7.21054055       1.56657635      -4.02294094
C        8.97601154       3.03884055      -3.41754327
C        9.51491429       2.13914076      -2.50445774
N       10.66427892       2.35744284      -1.81784809
C       11.30393783       3.52627094      -2.06063407
C       10.84265555       4.48064362      -2.95527053
Br      11.80435425       6.07701511      -3.24044876
C        9.65874249       4.23728842      -3.64568521
O        4.40807345       2.73801570      -3.96380852
H        2.62484223      -0.37808048      -0.66943313
H        4.04259767       1.02414511      -2.10829978
H        0.73846404       3.74223419      -2.70532754
H       -0.67956506       2.32317772      -1.27476274
H        6.08170146       4.11754386      -6.46311783
H        6.04620740       2.42261152      -5.98506178
H        9.03047722       1.18908309      -2.28830492
H       12.22279497       3.66969537      -1.49839662
H        9.28188098       4.96976224      -4.35385135
C       -0.88154145      -0.88154145      -0.88154145
C       -1.42812204      -0.36188095      -2.05268579
C       -2.22353404      -1.17435554      -2.86705855
C       -2.48299124      -2.50859774      -2.51405519
C       -1.93464457      -3.00823905      -1.32273947
C       -1.13118401      -2.20101575      -0.51159436
C       -3.28857512      -3.37709826      -3.36002788
N       -3.88144876      -4.52375824      -3.09241513
N       -4.45482746      -4.95649183      -4.27250020
C       -4.15644929      -4.05108416      -5.18067686
C       -4.44741304      -4.03226256      -6.63173693
O       -5.65972623      -3.29330905      -6.85945758
C       -5.50023422      -1.96139916      -7.04315862
O       -4.44625488      -1.35131164      -7.00249132
C       -6.80292551      -1.31729714      -7.31217271
C       -6.85031545       0.07082615      -7.37902349
N       -7.98020711       0.77625605      -7.63561879
C       -9.11086367       0.05893022      -7.83890939
C       -9.15754734      -1.32664563      -7.79437673
Br     -10.77495112      -2.24555030      -8.10131669
C       -7.98676520      -2.02975110      -7.52519982
O       -3.42386455      -3.01258941      -4.67344370
H       -1.24051783       0.66848996      -2.34416701
H       -2.64071024      -0.75340235      -3.78092997
H       -2.11954631      -4.04011718      -1.02636226
H       -0.70499765      -2.61291615       0.39953840
H       -4.62298281      -5.05329412      -6.98608621
H       -3.60991205      -3.63042886      -7.21353979
H       -5.96081071       0.67846914      -7.22552366
H       -9.99751194       0.65229694      -8.04567196
H       -8.00045786      -3.11538038      -7.48965633
C       -0.88154145       0.88154145       0.88154145
C       -0.31071249       1.92416341       1.60781288
C       -1.12105408       2.74025334       2.40364071
C       -2.50513071       2.51660163       2.48391184
C       -3.05803081       1.45194928       1.75564300
C       -2.25163503       0.64046656       0.95169253
C       -3.36877611       3.36925245       3.28767271
N       -4.59666421       3.17467788       3.72628003
N       -4.96919679       4.33166201       4.38296069
C       -3.94790566       5.15669056       4.28361409
C       -3.81445146       6.55893486       4.73802621
O       -3.19875077       6.57640074       6.03734136
C       -1.84560146       6.62280952       6.03638101
O       -1.12700795       6.62071767       5.05233221
C       -1.32970369       6.68265287       7.42003880
C        0.04357151       6.58610137       7.61598293
N        0.63845409       6.64431633       8.83370761
C       -0.17825770       6.81149758       9.90108756
C       -1.55743343       6.92022569       9.80091057
Br      -2.61812235       7.16313334      11.34056243
C       -2.14665346       6.85348097       8.54158169
O       -2.89002457       4.61204242       3.60783067
H        0.75861655       2.11423027       1.56058116
H       -0.65929316       3.55303104       2.96271835
H       -4.12904134       1.25749066       1.79949376
H       -2.70314593      -0.16971508       0.38494455
H       -4.80734411       7.00729111       4.84772793
H       -3.26281973       7.17361788       4.01744310
H        0.72955080       6.45601066       6.78140537
H        0.32844489       6.85799951      10.86133234
H       -3.22473317       6.94036131       8.44040009
C        0.88154145      -0.88154145       0.88154145
C        1.24221736      -2.15454232       0.44592910
C        2.06169254      -2.95573094       1.24752464
C        2.52100379      -2.49322825       2.49141214
C        2.13418770      -1.21341048       2.91802491
C        1.32286919      -0.40657071       2.11435422
C        3.39381367      -3.30236805       3.32951955
N        3.69280120      -3.19577447       4.60904645
N        4.62352177      -4.18007317       4.88022454
C        4.83907434      -4.80666896       3.74246700
C        5.78876682      -5.89681385       3.42583186
O        5.11135453      -7.15990854       3.54122981
C        4.49722658      -7.59270302       2.41486239
O        4.44800748      -7.00153107       1.35051928
C        3.87713234      -8.91520463       2.64005839
C        3.07600040      -9.44695759       1.63555480
N        2.46690283     -10.65633905       1.71632796
C        2.67375995     -11.36577616       2.85130673
C        3.45863991     -10.91678832       3.90314147
Br       3.70185707     -11.97664035       5.44332069
C        4.07064127      -9.67083052       3.80024433
O        4.08677175      -4.31023915       2.71288676
H        0.89705706      -2.53234797      -0.51321015
H        2.33692475      -3.94737298       0.89074482
H        2.47757787      -0.83019802       3.87824988
H        1.04715788       0.58700681       2.45822432
H        6.60263602      -5.90144110       4.15828603
H        6.24676764      -5.76881578       2.43829729
H        2.89191821      -8.90695920       0.70898782
H        2.17580749     -12.33115665       2.88392281
H        4.69267310      -9.30198011       4.61084136
