149
Properties=species:S:1:pos:R:3 pbc="F F F"
C        0.00000000       0.00000000       0.00000000
C        0.88193684       0.88193684      -0.88193684
C        1.93982945       0.31046489      -1.59055513
C        2.74093244       1.11340806      -2.40471866
C        2.47738544       2.48694890      -2.49320992
C        1.41720389       3.05820395      -1.78649541
C        0.61674327       2.24921122      -0.97664192
S        3.48282993       3.48908817      -3.55731288
O        3.60465417       2.78423901      -4.81557368
O        3.01343153       4.85495231      -3.50395968
N        5.00430857       3.39890201      -2.82655778
C        5.32537683       4.33823780      -1.80866085
C        4.96989675       4.07158296      -0.48830907
C        5.31582398       4.96696407       0.52710227
Br       4.86871136       4.58897151       2.31902376
C        6.01092781       6.12185688       0.16051629
O        6.47658768       7.07693983       1.00905714
C        7.10263218       8.02107326       0.25865324
C        7.70764360       9.14594944       1.00861430
C        7.01243853       7.71556959      -1.09173518
C        7.54054255       8.57016690      -2.15099513
O        8.41011859       9.41073965      -1.92108523
C        6.99423627       8.42563357      -3.54762837
C        6.33772429       6.44903097      -1.15443547
C        5.97862561       5.52939042      -2.16380442
H        2.14080688      -0.75613875      -1.52172952
H        3.55660899       0.66646083      -2.96939300
H        1.20098927       4.12129617      -1.86582848
H       -0.21400486       2.69117371      -0.43085811
H        5.72029796       3.19413537      -3.52406575
H        4.45267868       3.14936860      -0.23775104
H        7.57498562       9.02133461       2.08783641
H        7.24554444      10.09384990       0.71705607
H        8.78207775       9.20529901       0.80884678
H        7.39676131       7.52695437      -4.01864928
H        7.29326400       9.29376191      -4.14369879
H        5.90165140       8.39597234      -3.52491314
H        6.21479509       5.72234648      -3.20458896
C       -0.88193684      -0.88193684      -0.88193684
C       -0.44047716      -2.15510721      -1.24526510
C       -1.24950571      -2.96628651      -2.04326694
C       -2.49296337      -2.48734435      -2.47723654
C       -2.93588525      -1.21466535      -2.11135265
C       -2.12385158      -0.40916947      -1.30957536
S       -3.52457728      -3.54159372      -3.46305998
O       -3.53205593      -4.84290914      -2.82950179
O       -4.75513675      -2.84815431      -3.76905246
N       -2.62479292      -3.72251832      -4.88245712
C       -2.79075975      -2.76302184      -5.91849390
C       -2.03289342      -1.59418080      -5.90271456
C       -2.15664594      -0.66242505      -6.93661479
Br      -1.10414852       0.90155052      -6.93606111
C       -3.06471081      -0.94882467      -7.95873292
O       -3.28248064      -0.19362202      -9.06836772
C       -4.22887213      -0.82340546      -9.81277462
C       -4.59073399      -0.16499766     -11.08924709
C       -4.67208183      -1.97295117      -9.17471029
C       -5.72754011      -2.83364609      -9.70051837
O       -6.03249569      -2.81633309     -10.89311469
C       -6.46457418      -3.74706238      -8.75586166
C       -3.87802640      -2.08058708      -7.98257725
C       -3.73557648      -3.00838114      -6.92786284
H        0.52403808      -2.52512529      -0.90531044
H       -0.91297919      -3.96480061      -2.31468302
H       -3.90738405      -0.84678794      -2.43394194
H       -2.47023528       0.57984054      -1.01763222
H       -2.58151929      -4.70591208      -5.15106772
H       -1.31691918      -1.41846056      -5.10441858
H       -3.99888206       0.74132386     -11.25092562
H       -5.64823594       0.11562048     -11.08972282
H       -4.40777565      -0.83821197     -11.93254236
H       -5.84066911      -4.60456567      -8.49713019
H       -7.37342315      -4.11351641      -9.24378513
H       -6.76440541      -3.20005982      -7.85807165
H       -4.33244102      -3.91335294      -6.89593658
C       -0.88193684       0.88193684       0.88193684
C       -0.34697232       2.03435275       1.45952440
C       -1.15429096       2.84678448       2.25798372
C       -2.49153781       2.48926682       2.47673963
C       -3.02754614       1.33782614       1.89653097
C       -2.21610701       0.53103145       1.09545794
S       -3.51445259       3.54850226       3.46627613
O       -3.28619757       4.90430121       3.01396808
O       -4.84708854       2.99307105       3.53218393
N       -2.79548645       3.44197392       4.99230799
C       -3.20785336       2.39863961       5.86578252
C       -2.59611501       1.14968582       5.78398795
C       -2.96341115       0.12832073       6.66395390
Br      -2.10976427      -1.55033327       6.57922810
C       -3.95907811       0.41116461       7.60202568
O       -4.40834547      -0.43280900       8.56893390
C       -5.36493957       0.22549805       9.27461459
C       -5.96682537      -0.52359216      10.40174553
C       -5.58268967       1.49008800       8.74696563
C       -6.59078232       2.41561480       9.25530746
O       -7.05077875       2.29982087      10.39134384
C       -7.08472382       3.52241697       8.36035743
C       -4.63078829       1.63001744       7.68038501
C       -4.24279589       2.64743668       6.78158788
H        0.69056098       2.31059770       1.28636094
H       -0.74248834       3.75345580       2.69651867
H       -4.06940604       1.06663784       2.05207004
H       -2.63378760      -0.36258624       0.63682561
H       -2.67373108       4.37289210       5.39187590
H       -1.80623313       0.97509665       5.05846854
H       -5.51135929      -1.51287434      10.50999886
H       -7.04054036      -0.65993837      10.24173630
H       -5.81979626       0.01649620      11.34223752
H       -6.33634747       4.31409897       8.29191853
H       -8.00114104       3.94647197       8.78311168
H       -7.32486137       3.12838217       7.36929335
H       -4.72052208       3.62091933       6.80028913
C        0.88193684      -0.88193684       0.88193684
C        2.25203328      -0.62801994       0.96079625
C        3.05804500      -1.42704969       1.77396447
C        2.48127470      -2.48121918       2.49505037
C        1.11004941      -2.73346330       2.41839055
C        0.30808168      -1.92825627       1.60625846
S        3.51201282      -3.46734102       3.54987714
O        4.33790805      -2.55492662       4.31163219
O        2.70036025      -4.46916925       4.20281401
N        4.55026210      -4.22639875       2.45310751
C        4.14162148      -5.45821952       1.87243449
C        3.36041651      -5.45039227       0.71898000
C        2.98665407      -6.65380903       0.11522268
Br       1.96152573      -6.64392997      -1.46679660
C        3.41625396      -7.83895286       0.71706159
O        3.19865254      -9.09693017       0.24888766
C        3.78708139      -9.96330443       1.11466639
C        3.68335185     -11.39841622       0.76321066
C        4.35571528      -9.28250476       2.18152326
C        5.01282315      -9.94404138       3.30484005
O        5.43382629     -11.09709721       3.21101996
C        5.16083052      -9.20008167       4.60658603
C        4.15341188      -7.88874612       1.89903273
C        4.52007607      -6.66056304       2.49118134
H        2.69668986       0.19207690       0.40178469
H        4.12381904      -1.22066481       1.84797896
H        0.65755877      -3.54124352       2.98931164
H       -0.76148742      -2.11876577       1.55074862
H        5.51698859      -4.15087555       2.77063494
H        3.06762962      -4.50790515       0.26426355
H        3.15524555     -11.53837493      -0.18513666
H        3.13859026     -11.94482559       1.53892242
H        4.67934813     -11.84001042       0.65917143
H        5.95699635      -8.45749442       4.52787420
H        5.42352560      -9.90816689       5.39903221
H        4.21434219      -8.72694575       4.88124894
H        5.10260068      -6.63352278       3.40560708
