122
Properties=species:S:1:pos:R:3 pbc="F F F"
C        1.79124944       1.79124944      -1.79124944
C        1.80528009       3.16899174      -1.59849430
C        2.61373477       3.97445034      -2.40773501
C        3.44442536       3.41825731      -3.38949648
C        3.37466994       2.03278274      -3.59354082
C        2.56657517       1.21904523      -2.79347188
N        4.22814450       4.18448491      -4.25177370
C        4.65328906       5.53094915      -3.84201731
C        5.95692353       5.93780354      -4.55163863
O        6.55425813       5.12822514      -5.26993506
C        6.49790049       7.26884169      -4.28194113
C        7.75728312       7.73253978      -4.62790868
C        7.98746940       9.07531612      -4.20025996
C        6.88480367       9.58355008      -3.56399907
Br       6.79785487      11.32023042      -2.86925670
S        5.60474542       8.48235953      -3.46306993
H        1.18716434       3.62922220      -0.83312059
H        2.57549134       5.04892413      -2.25256685
H        3.95975319       1.56988442      -4.38466912
H        2.54605933       0.14650857      -2.96809412
H        4.98894868       3.66334297      -4.69443094
H        4.85751844       5.55920907      -2.76533327
H        3.85854329       6.23760128      -4.10200785
H        8.48587038       7.12348717      -5.15343774
H        8.90962624       9.62130830      -4.35880438
C       -1.79124944      -1.79124944      -1.79124944
C       -2.66703237      -1.20577615      -2.69995761
C       -3.47379482      -2.01578805      -3.50633726
C       -3.39219530      -3.41329878      -3.44668506
C       -2.53603858      -3.97572229      -2.48923263
C       -1.72872351      -3.17529803      -1.67507074
N       -4.21086340      -4.25964906      -4.19389067
C       -4.79688606      -3.77657722      -5.45279225
C       -5.09142122      -4.94606574      -6.40887874
O       -4.74372080      -6.09503397      -6.11366356
C       -5.71295186      -4.63965828      -7.69607317
C       -5.84283825      -5.50036038      -8.77453295
C       -6.47965634      -4.88740122      -9.89598791
C       -6.82564345      -3.59095960      -9.61574978
Br      -7.69031363      -2.46254498     -10.83448338
S       -6.38965499      -3.10537058      -8.05514931
H       -2.74019388      -0.12537325      -2.78394000
H       -4.17009009      -1.52587557      -4.18101666
H       -2.48745042      -5.05562762      -2.37122869
H       -1.06500251      -3.64304202      -0.95261749
H       -3.85096654      -5.21303269      -4.28272336
H       -4.09745776      -3.11170847      -5.97289455
H       -5.72808834      -3.25001792      -5.22004616
H       -5.48016128      -6.52320088      -8.75943313
H       -6.66675808      -5.38092529     -10.84205555
C       -1.79124944       1.79124944       1.79124944
C       -2.56975926       1.21377435       2.78923252
C       -3.37675695       2.02374828       3.59541489
C       -3.39023708       3.41676643       3.44517563
C       -2.63275468       3.96690561       2.40133321
C       -1.82630774       3.16600740       1.58677713
N       -4.21508219       4.25834724       4.19097369
C       -4.69024108       3.82342141       5.51259303
C       -5.00133710       5.03253226       6.41249634
O       -4.74799249       6.17892834       6.02549750
C       -5.52164735       4.77323516       7.75380079
C       -5.64113693       5.69284764       8.78374700
C       -6.16683021       5.11648665       9.97972862
C       -6.44406369       3.78579906       9.80249008
Br      -7.15714231       2.68844726      11.14175241
S       -6.07365103       3.22709576       8.24942810
H       -2.56705838       0.13869648       2.94375227
H       -3.99704648       1.53717702       4.34275882
H       -2.66197966       5.03776653       2.21456054
H       -1.23993993       3.62539155       0.79533055
H       -3.91334199       5.23572411       4.19765649
H       -3.91844889       3.23791487       6.02569702
H       -5.59762862       3.22682270       5.37370110
H       -5.34751472       6.73279802       8.68248255
H       -6.32747024       5.65826023      10.90400846
C        1.79124944      -1.79124944       1.79124944
C        2.14043631      -3.06836426       1.36396556
C        2.94809556      -3.87411650       2.17370806
C        3.44848583      -3.40730420       3.39638911
C        3.04213514      -2.13516743       3.82369094
C        2.23137628      -1.32341481       3.02430118
N        4.21438447      -4.19142733       4.25859133
C        4.98980021      -5.31782949       3.71862583
C        6.20307474      -5.63116584       4.61212513
O        6.47109102      -4.90519519       5.57613212
C        7.06129367      -6.75277311       4.23461652
C        8.30932903      -7.04897577       4.75942678
C        8.90008595      -8.20265514       4.16030439
C        8.06672984      -8.74748562       3.21813736
Br       8.48698141     -10.27713453       2.22322605
S        6.61575294      -7.89697117       3.03745078
H        1.78444728      -3.45258041       0.41247944
H        3.17409423      -4.87781545       1.82507263
H        3.36126193      -1.75991008       4.79313472
H        1.94596332      -0.33629723       3.37840147
H        4.75142927      -3.65275955       4.94253377
H        5.38371384      -5.07302967       2.72531727
H        4.33560606      -6.19422690       3.66831947
H        8.78147197      -6.44983586       5.53148746
H        9.87598250      -8.59688185       4.41687458
C       -0.00445707       0.01189536      -1.78238275
H       -0.66409135       0.67374010      -2.43557963
H        0.65740317      -0.63156657      -2.45157240
C       -0.90989263      -0.90692880      -0.91072765
C        0.90977584       0.90977584      -0.90977584
C       -0.00465871       1.77757030       0.00794375
H       -0.66225468       2.44313916      -0.64384735
H        0.64322798       2.43503045       0.67728295
C       -1.78241447       0.00034974      -0.00472694
H       -2.45427497      -0.65498947       0.64260836
H       -2.43311707       0.67328779      -0.65473579
C       -0.91132561       0.90220522       0.91563759
C       -0.01476271      -0.02253852       1.78660255
H       -0.67934791      -0.69751639       2.42135241
H        0.63392994       0.61504881       2.47327442
C        0.01484550      -1.77751727      -0.01636693
H        0.67870853      -2.42144646      -0.68295456
H       -0.62264859      -2.45592969       0.64226336
C        1.78714474       0.01002794       0.00389507
H        2.44202412       0.67113390       0.66197326
H        2.45385902      -0.65136977      -0.64189061
C        0.91606151      -0.90478549       0.90901405
