93
Properties=species:S:1:pos:R:3 pbc="F F F"
C        0.00000000       0.00000000       0.00000000
C        0.88262124       0.88262124      -0.88262124
C        1.98621051       0.30975038      -1.54521981
C        2.81853541       1.08766274      -2.36321397
C        2.52682484       2.43332566      -2.50219890
C        1.41821241       2.97574150      -1.82785851
C        0.58128840       2.23569496      -1.01646150
C        1.35313172       4.41540636      -2.15836875
O        0.53238210       5.21329510      -1.76329470
C        2.48756291       4.68904012      -3.06626114
C        2.85776470       5.88292314      -3.65279766
C        3.98272847       5.84959886      -4.47306440
C        4.69779693       4.65442619      -4.68600498
C        4.29711566       3.45681028      -4.07600137
C        3.18029741       3.48034503      -3.25908146
H        2.20228079      -0.75033614      -1.42551577
H        3.66563340       0.63425660      -2.86814896
H       -0.26220432       2.69902449      -0.51670946
H        2.29139065       6.79019846      -3.47379796
H        5.57429437       4.65260128      -5.33148748
H        4.85664690       2.54281966      -4.24820482
C        4.42525829       7.05922008      -5.11694628
C        4.79587701       8.07227785      -5.65619735
Br       5.39513615       9.71030658      -6.52812072
C       -0.88262124      -0.88262124      -0.88262124
C       -2.18906768      -0.45732508      -1.19478793
C       -3.02797281      -1.24003040      -2.00140891
C       -2.53813171      -2.44156173      -2.48265596
C       -1.22973310      -2.83864672      -2.15343259
C       -0.38109617      -2.09006452      -1.36228417
C       -0.98252261      -4.14589371      -2.79849051
O        0.03411067      -4.80131646      -2.74176612
C       -2.22108956      -4.49532053      -3.52645408
C       -2.49154990      -5.61675655      -4.28517906
C       -3.75666794      -5.68539548      -4.86332831
C       -4.70296067      -4.65831256      -4.67695487
C       -4.39877931      -3.53079338      -3.90035462
C       -3.14395921      -3.45395815      -3.32180653
H       -2.55953889       0.49040963      -0.80833116
H       -4.03242133      -0.90111646      -2.23450118
H        0.62053011      -2.43836074      -1.13569900
H       -1.74680071      -6.39435789      -4.41422848
H       -5.68574385      -4.73379947      -5.13883981
H       -5.13667313      -2.74646319      -3.76453506
C       -4.10628259      -6.82756847      -5.66757359
C       -4.39908486      -7.78413834      -6.34112901
Br      -4.87252137      -9.33083092      -7.43021116
C       -0.88262124       0.88262124       0.88262124
C       -0.36050790       2.08759297       1.39307982
C       -1.14006015       2.92319334       2.20615863
C       -2.43614316       2.53245247       2.49375378
C       -2.92855908       1.32397084       1.96928249
C       -2.18559809       0.48122552       1.16662125
C       -4.32256648       1.16769450       2.43664585
O       -5.07140322       0.24896901       2.18859968
C       -4.62221632       2.35408986       3.26655800
C       -5.79101796       2.67419442       3.92827312
C       -5.79275807       3.86919536       4.64343831
C       -4.65557486       4.70009127       4.68256197
C       -3.48222055       4.34786981       3.99983695
C       -3.47119922       3.16202968       3.28649500
H        0.66097647       2.38076668       1.15767022
H       -0.72600010       3.84888074       2.59315812
H       -2.60935407      -0.44131090       0.78548646
H       -6.65356153       2.01847373       3.88335182
H       -4.68035400       5.62972731       5.24830183
H       -2.61296340       4.99675114       4.03795683
C       -6.97896973       4.26496724       5.35748768
C       -7.97242200       4.59642618       5.95550402
Br      -9.57875030       5.13236727       6.92244588
C        0.88262124      -0.88262124       0.88262124
C        0.42474570      -2.16223226       1.25420274
C        1.20638131      -3.00025628       2.06277454
C        2.43972301      -2.53661717       2.48600923
C        2.86887302      -1.25463031       2.09830908
C        2.12220384      -0.40756913       1.30367189
C        4.20520150      -1.03137406       2.69033128
O        4.89200653      -0.04059015       2.57637523
C        4.53782528      -2.25610045       3.44893844
C        5.67503540      -2.53955382       4.17889629
C        5.72115725      -3.78612468       4.79810980
C        4.65720212      -4.70204601       4.67897997
C        3.51441237      -4.38528639       3.93022855
C        3.45968922      -3.14867985       3.31135482
H       -0.54784699      -2.51222811       0.91307931
H        0.84214731      -3.98384882       2.34204284
H        2.49588408       0.57314851       1.03079406
H        6.48108825      -1.81823996       4.25605887
H        4.71563880      -5.67078502       5.17195931
H        2.70164223      -5.09975440       3.84627475
C        6.87793703      -4.14777086       5.57571675
C        7.84674010      -4.45064953       6.22696258
Br       9.41321272      -4.94037872       7.27997200
