114
Properties=species:S:1:pos:R:3 pbc="F F F"
C        1.79252527       1.79252527      -1.79252527
C        2.89611454       1.21965440      -2.45512383
C        3.72843944       1.99756677      -3.27311799
C        3.43672887       3.34322969      -3.41210292
C        2.32811643       3.88564552      -2.73776253
C        1.49119242       3.14559899      -1.92636552
C        2.26303574       5.32531039      -3.06827277
O        1.44228613       6.12319913      -2.67319873
C        3.39746693       5.59894415      -3.97616517
C        3.76766872       6.79282717      -4.56270169
C        4.89263249       6.75950289      -5.38296842
C        5.60770096       5.56433022      -5.59590901
C        5.20701969       4.36671430      -4.98590539
C        4.09020143       4.39024905      -4.16898549
H        3.11218481       0.15956789      -2.33541979
H        4.57553743       1.54416062      -3.77805299
H        0.64769971       3.60892851      -1.42661349
H        3.20129468       7.70010249      -4.38370199
H        6.48419839       5.56250530      -6.24139150
H        5.76655092       3.45272369      -5.15810884
C        5.33516231       7.96912410      -6.02685030
C        5.70578104       8.98218187      -6.56610137
Br       6.30504017      10.62021060      -7.43802475
C       -1.79252527      -1.79252527      -1.79252527
C       -3.08643210      -1.35115930      -2.13330137
C       -3.92493056      -2.13334282      -2.94085081
C       -3.44733696      -3.35056913      -3.39415538
C       -2.15128828      -3.76347979      -3.03675641
C       -1.30337515      -3.01582675      -2.24395503
C       -1.91533732      -5.08514775      -3.65613384
O       -0.91081312      -5.75608475      -3.57178611
C       -3.14746767      -5.42632202      -4.39878656
C       -3.42409524      -6.55564934      -5.14345300
C       -4.68054970      -6.61318530      -5.74136880
C       -5.61254747      -5.56779610      -5.58759661
C       -5.30239938      -4.43264170      -4.82459831
C       -4.05611022      -4.36673653      -4.22658923
H       -3.44735945      -0.39119088      -1.76862217
H       -4.91965281      -1.78196198      -3.19613625
H       -0.31152398      -3.37664939      -1.99506833
H       -2.69037368      -7.34737312      -5.24735236
H       -6.58876046      -5.63486412      -6.06447062
H       -6.02926627      -3.63419045      -4.71392672
C       -5.03591011      -7.76270595      -6.53252066
C       -5.33352446      -8.72542949      -7.19511034
Br      -5.81474168     -10.28207203      -8.26646181
C       -1.79252527       1.79252527       1.79252527
C       -1.26782867       2.99361051       2.30945358
C       -2.04729715       3.82908470       3.12274235
C       -3.34590324       3.44213965       3.40401858
C       -3.84086336       2.23748547       2.87317566
C       -3.09805145       1.39496486       2.07014062
C       -5.23719040       2.08469692       3.33473158
O       -5.98852175       1.16972358       3.08043865
C       -5.53551430       3.26909643       4.16796552
C       -6.70558658       3.59110962       4.82650138
C       -6.70554193       4.78342531       5.54613657
C       -5.56541370       5.60989373       5.59263275
C       -4.39083006       5.25582559       4.91298373
C       -4.38156620       4.07262891       4.19524086
H       -0.24437822       3.28382553       2.07896874
H       -1.63123344       4.75175700       3.51476060
H       -3.52382119       0.47545795       1.68396256
H       -7.57040203       2.93880453       4.77589259
H       -5.58883931       6.53749365       6.16176224
H       -3.51930117       5.90129165       4.95679063
C       -7.89293745       5.18097436       6.25722491
C       -8.88738119       5.51392169       6.85276140
Br     -10.49531263       6.05226937       7.81569353
C        1.79252527      -1.79252527       1.79252527
C        1.32264745      -3.06071947       2.18752585
C        2.10389377      -3.89837274       2.99685769
C        3.34895811      -3.44588411       3.39721926
C        3.78992876      -2.17514055       2.98645518
C        3.04395250      -1.32873959       2.19046484
C        5.13703361      -1.96212916       3.55745613
O        5.83542853      -0.98236712       3.42088833
C        5.46349630      -3.18099228       4.32808767
C        6.60660839      -3.47005126       5.04653792
C        6.64443788      -4.70873398       5.68193194
C        5.56680139      -5.61165042       5.58948837
C        4.41830150      -5.28946706       4.85187082
C        4.37174352      -4.06062563       4.21706682
H        0.34091961      -3.40202369       1.86422920
H        1.73035007      -4.87310802       3.29429294
H        3.42698893      -0.35692131       1.89933147
H        7.42321555      -2.75877009       5.10311352
H        5.61894949      -6.57440829       6.09473741
H        3.59497777      -5.99390340       4.78850228
C        7.80671595      -5.07559932       6.44882144
C        8.78012383      -5.38284905       7.09109140
Br      10.35404205      -5.87964587       8.12958760
C       -0.00445707       0.01189536      -1.78238275
H       -0.66409135       0.67374010      -2.43557963
H        0.65740317      -0.63156657      -2.45157240
C       -0.90989263      -0.90692880      -0.91072765
C        0.90977584       0.90977584      -0.90977584
C       -0.00465871       1.77757030       0.00794375
H       -0.66225468       2.44313916      -0.64384735
H        0.64322798       2.43503045       0.67728295
C       -1.78241447       0.00034974      -0.00472694
H       -2.45427497      -0.65498947       0.64260836
H       -2.43311707       0.67328779      -0.65473579
C       -0.91132561       0.90220522       0.91563759
C       -0.01476271      -0.02253852       1.78660255
H       -0.67934791      -0.69751639       2.42135241
H        0.63392994       0.61504881       2.47327442
C        0.01484550      -1.77751727      -0.01636693
H        0.67870853      -2.42144646      -0.68295456
H       -0.62264859      -2.45592969       0.64226336
C        1.78714474       0.01002794       0.00389507
H        2.44202412       0.67113390       0.66197326
H        2.45385902      -0.65136977      -0.64189061
C        0.91606151      -0.90478549       0.90901405
