85
Properties=species:S:1:pos:R:3 pbc="F F F"
C        0.00000000       0.00000000       0.00000000
C        0.88262124       0.88262124      -0.88262124
C        1.98621051       0.30975038      -1.54521981
C        2.81853541       1.08766274      -2.36321397
C        2.52682484       2.43332566      -2.50219890
C        1.41821241       2.97574150      -1.82785851
C        0.58128840       2.23569496      -1.01646150
C        1.35313172       4.41540636      -2.15836875
O        0.53238210       5.21329510      -1.76329470
C        2.48756291       4.68904012      -3.06626114
C        2.85776470       5.88292314      -3.65279766
C        3.98272847       5.84959886      -4.47306440
Br       4.56408656       7.43869646      -5.31894172
C        4.69779693       4.65442619      -4.68600498
C        4.29711566       3.45681028      -4.07600137
C        3.18029741       3.48034503      -3.25908146
H        2.20228079      -0.75033614      -1.42551577
H        3.66563340       0.63425660      -2.86814896
H       -0.26220432       2.69902449      -0.51670946
H        2.29139065       6.79019846      -3.47379796
H        5.57429437       4.65260128      -5.33148748
H        4.85664690       2.54281966      -4.24820482
C       -0.88262124      -0.88262124      -0.88262124
C       -2.16992976      -0.43341486      -1.23783608
C       -3.00821423      -1.21534380      -2.04585410
C       -2.53706523      -2.44022763      -2.48505654
C       -1.24751504      -2.86085958      -2.11343779
C       -0.39998280      -2.11365989      -1.31980216
C       -1.01748872      -4.18956340      -2.71985471
O       -0.01933624      -4.86806973      -2.62156594
C       -2.24623209      -4.52671124      -3.46992084
C       -2.52610469      -5.65988859      -4.20749222
C       -3.77800040      -5.71200744      -4.81538389
Br      -4.24881436      -7.22685936      -5.84605102
C       -4.70247635      -4.65768678      -4.67806498
C       -4.38918871      -3.51880729      -3.92193130
C       -3.14738848      -3.45823484      -3.31410058
H       -2.52583511       0.53252237      -0.88414769
H       -3.99781850      -0.85788038      -2.31234009
H        0.58672474      -2.48059412      -1.05966025
H       -1.79818573      -6.45850257      -4.29869879
H       -5.67523213      -4.72064727      -5.16250373
H       -5.11025340      -2.71346653      -3.82395145
C       -0.88262124       0.88262124       0.88262124
C       -0.35664856       2.08175204       1.40278010
C       -1.13607566       2.91716276       2.21617371
C       -2.43592811       2.53212658       2.49429470
C       -2.93214503       1.32939716       1.96027022
C       -2.18940677       0.48698956       1.15704853
C       -4.32961795       1.17836257       2.41892631
O       -5.08218160       0.26527614       2.16151417
C       -4.62728685       2.36175841       3.25381892
C       -5.79798682       2.68473141       3.91076727
C       -5.79706052       3.87569673       4.63263448
Br      -7.35772817       4.39913700       5.56485956
C       -4.65547748       4.69993864       4.68281199
C       -3.48028656       4.34494182       4.00469892
C       -3.47189087       3.16307450       3.28475853
H        0.66777310       2.37047917       1.17475435
H       -0.71902217       3.83831882       2.61069797
H       -2.61617127      -0.43099385       0.76835221
H       -6.66392456       2.03414398       3.85731854
H       -4.67823448       5.62651462       5.25363403
H       -2.60763546       4.98869039       4.05134553
C        0.88262124      -0.88262124       0.88262124
C        0.40696722      -2.14497841       1.28923508
C        1.18802619      -2.98244213       2.09894381
C        2.43873217      -2.53565437       2.48796286
C        2.88539161      -1.27065915       2.06576164
C        2.13974883      -0.42459574       1.26910030
C        4.23768276      -1.06288569       2.62633839
O        4.94165545      -0.08875880       2.47855766
C        4.56118039      -2.27875113       3.40293266
C        5.70713295      -2.57067617       4.11567638
C        5.74097166      -3.80532595       4.75909412
Br       7.27135023      -4.29078813       5.75958638
C        4.65675080      -4.70159332       4.67988399
C        3.50550276      -4.37663690       3.94778765
C        3.46287437      -3.15176553       3.30508399
H       -0.57915697      -2.48183889       0.97477850
H        0.81000214      -3.95264899       2.40538784
H        2.52728800       0.54267259       0.96891421
H        6.52881953      -1.86452446       4.16204309
H        4.70587246      -5.66129322       5.19121745
H        2.67709996      -5.07594429       3.89462713
