118
Properties=species:S:1:pos:R:3 pbc="F F F"
Cl       3.65945797      -0.21488770      -2.00897321
C        3.02328087       1.36140341      -2.31577184
C        3.78501764       2.21658487      -3.11722983
C        3.31983276       3.50694046      -3.38649689
C        2.09088087       3.94338776      -2.88584186
C        1.33301710       3.08612622      -2.08585696
C        1.79668405       1.79668405      -1.79668405
S        4.27709074       4.58133362      -4.43170408
O        5.09761520       3.73816819      -5.28074600
O        3.36367689       5.54592719      -5.01394077
C        5.37309723       5.47458181      -3.35287388
C        6.64981947       4.97119302      -3.09237380
C        7.51399470       5.68906917      -2.26353348
C        7.10734913       6.90802374      -1.70669760
Br       8.34778822       7.81474162      -0.59086224
C        5.83072167       7.41357802      -1.98585959
Cl       5.25902478       8.91103309      -1.34200836
C        4.96246872       6.69793994      -2.81537699
H        4.72959107       1.87168615      -3.53355249
H        1.71071016       4.93705864      -3.11715429
H        0.37583203       3.42924409      -1.69720671
H        6.98473400       4.03343851      -3.53277126
H        8.50811062       5.29390494      -2.06244182
H        3.97725017       7.09955255      -3.04472695
Cl      -0.51111007      -4.05215396      -0.89027945
C       -1.67319953      -3.19193302      -1.83532357
C       -2.51079804      -3.94415909      -2.66387522
C       -3.46091628      -3.29493803      -3.45741580
C       -3.60111728      -1.90574498      -3.41324823
C       -2.76266862      -1.15805719      -2.58427448
C       -1.79668405      -1.79668405      -1.79668405
S       -4.54533746      -4.25762023      -4.48717076
O       -4.63353160      -5.58192195      -3.90107584
O       -5.74262920      -3.47007404      -4.71084160
C       -3.72138525      -4.42478404      -6.05438362
C       -2.89696668      -5.52785960      -6.28856002
C       -2.27178347      -5.66556700      -7.52924689
C       -2.47789611      -4.71106993      -8.53310444
Br      -1.58635725      -4.97882255     -10.18821230
C       -3.31895506      -3.61591870      -8.29528552
Cl      -3.62723404      -2.40099025      -9.48384194
C       -3.94692770      -3.47443181      -7.05442614
H       -2.42523502      -5.02900854      -2.68058615
H       -4.35938709      -1.39824459      -4.00729140
H       -2.87439928      -0.07571357      -2.55216998
H       -2.74198882      -6.28618211      -5.52277284
H       -1.62986413      -6.52621179      -7.70838145
H       -4.61290252      -2.63220816      -6.87641899
Cl      -3.46814786      -0.32541358       2.31080920
C       -2.94118517       1.31403118       2.44523977
C       -3.70754263       2.17187135       3.23941837
C       -3.33005385       3.51121577       3.37200050
C       -2.18191963       3.99670668       2.74148418
C       -1.41913097       3.13662770       1.94924162
C       -1.79668405       1.79668405       1.79668405
S       -4.29023154       4.59204953       4.40784738
O       -4.97310594       3.76147053       5.38195291
O       -3.41718677       5.66687408       4.83948400
C       -5.53344162       5.30941367       3.35769762
C       -6.78089765       4.69180403       3.24068461
C       -7.76060433       5.27269093       2.43330210
C       -7.49766580       6.46938410       1.75502057
Br      -8.88830021       7.18624824       0.67884364
C       -6.24907552       7.09065871       1.89042506
Cl      -5.85133744       8.56947182       1.09125697
C       -5.26544759       6.51235818       2.69797987
H       -4.58685759       1.79190306       3.75606907
H       -1.86761348       5.03170570       2.86560390
H       -0.52505399       3.51802936       1.45919948
H       -7.00421596       3.77049228       3.77623553
H       -8.73153996       4.78875093       2.34416649
H       -4.30175241       7.00433856       2.81543870
Cl       1.34540711      -3.95476151       0.15337486
C        2.03112577      -3.15003344       1.51929690
C        2.84859073      -3.90463194       2.36560967
C        3.41892457      -3.30317475       3.49117080
C        3.20295483      -1.95074552       3.76641014
C        2.38593938      -1.20049878       2.91856212
C        1.79668405      -1.79668405       1.79668405
S        4.48308119      -4.25849536       4.54855190
O        5.02562354      -5.34128076       3.74962508
O        5.36662870      -3.32974262       5.22717353
C        3.43058824      -4.98624820       5.78371647
C        2.88797912      -6.25554755       5.56985963
C        2.08176131      -6.83127067       6.55356538
C        1.82798443      -6.14589392       7.74819213
Br       0.71972983      -7.00497656       9.02868570
C        2.38909302      -4.87978075       7.96128551
Cl       2.12751183      -3.97516624       9.40938817
C        3.19700927      -4.29987778       6.97889860
H        3.04344717      -4.95136017       2.14002238
H        3.66880087      -1.47067795       4.62544427
H        2.21956742      -0.14688696       3.13582845
H        3.09146796      -6.80645536       4.65302046
H        1.66036693      -7.82042223       6.38366821
H        3.64564591      -3.32355906       7.15232470
C       -0.00445707       0.01189536      -1.78238275
H       -0.66409135       0.67374010      -2.43557963
H        0.65740317      -0.63156657      -2.45157240
C       -0.90989263      -0.90692880      -0.91072765
C        0.90977584       0.90977584      -0.90977584
C       -0.00465871       1.77757030       0.00794375
H       -0.66225468       2.44313916      -0.64384735
H        0.64322798       2.43503045       0.67728295
C       -1.78241447       0.00034974      -0.00472694
H       -2.45427497      -0.65498947       0.64260836
H       -2.43311707       0.67328779      -0.65473579
C       -0.91132561       0.90220522       0.91563759
C       -0.01476271      -0.02253852       1.78660255
H       -0.67934791      -0.69751639       2.42135241
H        0.63392994       0.61504881       2.47327442
C        0.01484550      -1.77751727      -0.01636693
H        0.67870853      -2.42144646      -0.68295456
H       -0.62264859      -2.45592969       0.64226336
C        1.78714474       0.01002794       0.00389507
H        2.44202412       0.67113390       0.66197326
H        2.45385902      -0.65136977      -0.64189061
C        0.91606151      -0.90478549       0.90901405
