105
Properties=species:S:1:pos:R:3 pbc="F F F"
C        0.00000000       0.00000000       0.00000000
Cl       2.74955395      -1.12479173      -1.09906919
C        2.11337684       0.45149938      -1.40586782
C        2.87511362       1.30668084      -2.20732581
C        2.40992873       2.59703644      -2.47659287
C        1.18097685       3.03348373      -1.97593784
C        0.42311308       2.17622220      -1.17595294
C        0.88678003       0.88678003      -0.88678003
S        3.36718672       3.67142960      -3.52180006
O        4.18771117       2.82826416      -4.37084197
O        2.45377287       4.63602316      -4.10403674
C        4.46319320       4.56467778      -2.44296986
C        5.73991545       4.06128900      -2.18246978
C        6.60409068       4.77916515      -1.35362946
C        6.19744510       5.99811972      -0.79679358
C        4.92081765       6.50367400      -1.07595556
Cl       4.34912076       8.00112907      -0.43210433
C        4.05256469       5.78803592      -1.90547296
H        3.81968704       0.96178213      -2.62364847
H        0.80080613       4.02715461      -2.20725027
H       -0.53407200       2.51934007      -0.78730268
H        6.07482998       3.12353449      -2.62286724
H        7.59820660       4.38400091      -1.15253779
H        3.06734614       6.18964853      -2.13482292
C        7.13809973       6.68570557       0.04937105
C        7.92589797       7.26155871       0.75803393
Br       9.19970111       8.19266455       1.90388186
Cl       1.16612440      -1.20085688      -2.68909893
C       -0.43378216      -1.44952873      -2.08743316
C       -1.28995820      -2.24853178      -2.85063029
C       -2.59868466      -2.47168618      -2.41318720
C       -3.05340116      -1.92726434      -1.20973292
C       -2.19508516      -1.12989069      -0.45031237
C       -0.88678003      -0.88678003      -0.88678003
S       -3.67534223      -3.51378959      -3.37128456
O       -2.83409078      -4.40602921      -4.14669732
O       -4.67852306      -4.04620457      -2.46910515
C       -4.51072772      -2.44173420      -4.51837892
C       -3.96757508      -2.22854160      -5.78755754
C       -4.64039963      -1.40467543      -6.69181023
C       -5.85422159      -0.80571564      -6.33242117
C       -6.40003348      -1.03750349      -5.06291024
Cl      -7.89412966      -0.33995216      -4.54827234
C       -5.72956942      -1.86187938      -4.15462477
H       -0.93186493      -2.69871714      -3.77453558
H       -4.06242793      -2.12246471      -0.85031837
H       -2.55246447      -0.70706845       0.48696216
H       -3.03351614      -2.70192591      -6.08578965
H       -4.21432218      -1.24050156      -7.67992157
H       -6.16261332      -2.05436174      -3.17484254
C       -6.49432811       0.03263627      -7.31274240
C       -7.03041732       0.73475599      -8.13376143
Br      -7.89722822       1.87002420      -9.46127977
Cl       1.05746896       0.95102271       2.83027766
C       -0.48036002       1.34236350       2.14802053
C       -1.33392097       2.14739233       2.90780698
C       -2.59427272       2.48376159       2.40552373
C       -3.00107726       2.04671741       1.14260375
C       -2.14553460       1.24293400       0.38681962
C       -0.88678003       0.88678003       0.88678003
S       -3.66520828       3.53338944       3.36181865
O       -2.82339516       4.31778682       4.24563533
O       -4.57116817       4.18637743       2.43628717
C       -4.64004152       2.44984709       4.38095224
C       -4.19669797       2.12245756       5.66451869
C       -4.97806775       1.29039712       6.46842041
C       -6.20027322       0.79690356       5.99518162
C       -6.64508526       1.14300842       4.71235354
Cl      -8.14222971       0.57960973       4.06051473
C       -5.86576664       1.97598427       3.90432266
H       -1.01064132       2.51441106       3.88006526
H       -3.96989540       2.33048895       0.73482666
H       -2.46551193       0.90394969      -0.59689086
H       -3.25685062       2.51328242       6.05109866
H       -4.62959696       1.03709531       7.46805304
H       -6.21996571       2.25742114       2.91443075
C       -6.95501406      -0.05649084       6.87591102
C       -7.58710950      -0.77120864       7.61352190
Br      -8.60915438      -1.92684688       8.80617630
Cl       2.93438842       0.94204428       0.73148727
C        2.19270554      -0.52984684       1.24819167
C        2.94997579      -1.38062841       2.05851608
C        2.39971508      -2.58938152       2.49446145
C        1.09316983      -2.94558426       2.15164433
C        0.34007003      -2.09299119       1.34222699
C        0.88678003      -0.88678003       0.88678003
S        3.35513967      -3.65483479       3.55044192
O        4.32778860      -2.82397723       4.23505148
O        2.42077620      -4.46841659       4.30463999
C        4.25472410      -4.74507881       2.47103793
C        5.53950769      -4.39555789       2.04860865
C        6.24974131      -5.26668358       1.22046040
C        5.68238266      -6.48459037       0.82538537
C        4.39934027      -6.83459195       1.26651499
Cl       3.63482391      -8.32003208       0.82749817
C        3.68493134      -5.96522116       2.09592108
H        3.95814554      -1.09466143       2.35231067
H        0.65004452      -3.87209964       2.51306685
H       -0.67770806      -2.37346519       1.07681363
H        5.99904913      -3.45970959       2.36247298
H        7.25059384      -4.99120001       0.89295145
H        2.69510655      -6.24543741       2.45127363
C        6.46942106      -7.33479844      -0.02978526
C        7.12856572      -8.04684769      -0.74599065
Br       8.19434689      -9.19817112      -1.90403421
