117
Properties=species:S:1:pos:R:3 pbc="F F F"
C        0.00000000       0.00000000       0.00000000
O        1.71048986       6.05964508      -4.05814743
C        2.50713281       6.49021026      -3.21908485
C        3.64616011       5.62959428      -2.68501494
O        3.26928200       4.25354617      -2.59525110
C        2.39098075       4.00053122      -1.57619407
O        2.03871960       4.84803839      -0.76422810
C        1.96266231       2.62328227      -1.61697086
C        2.18860769       1.59314353      -2.51340483
C        1.47760739       0.46506813      -2.03210608
C        0.86732635       0.86732635      -0.86732635
O        1.15455795       2.16880203      -0.60700836
C        2.41301539       7.91542085      -2.69842145
O        2.41795145       8.85930416      -3.76941843
C        3.66236837       9.16651032      -4.23927831
O        4.69581469       8.70576600      -3.76833184
C        3.55406286      10.08556716      -5.34689229
C        2.47834468      10.50429547      -6.11150750
C        2.98592674      11.40991065      -7.07558035
C        4.33717897      11.50268455      -6.83687615
Br       5.52511729      12.57265172      -7.79775884
O        4.69225269      10.70019660      -5.79937708
H        3.99941008       5.99256999      -1.71386252
H        4.47946062       5.70608731      -3.39071163
H        2.78373172       1.65789085      -3.41445668
H        1.41601814      -0.51567128      -2.48286863
H        3.19992155       8.13036298      -1.96735789
H        1.45925633       8.01158013      -2.16893584
H        1.45342627      10.17747711      -5.99312034
H        2.43265171      11.92762297      -7.84711048
O       -1.44230309      -5.41560322      -4.97037606
C       -1.92387254      -6.17131860      -4.12123678
C       -3.04681339      -5.71867196      -3.19528398
O       -2.92559119      -4.33487855      -2.85760952
C       -1.89643740      -4.07937770      -1.99189094
O       -1.21020522      -4.95784154      -1.48293934
C       -1.75703652      -2.65776756      -1.78811135
C       -2.37705230      -1.55957245      -2.35853130
C       -1.79856060      -0.40756735      -1.76865364
C       -0.86732635      -0.86732635      -0.86732635
O       -0.83491511      -2.22491450      -0.87053873
C       -1.44336385      -7.60641560      -3.97707824
O       -1.52169857      -8.30589750      -5.21907797
C       -2.76083112      -8.80250477      -5.50482112
O       -3.72257264      -8.69449972      -4.75284016
C       -2.74445164      -9.44482540      -6.79724528
C       -1.81926468      -9.44751086      -7.82737211
C       -2.35903501     -10.24865935      -8.86372337
C       -3.57408463     -10.69935911      -8.40329593
Br      -4.73093908     -11.81757610      -9.34701268
O       -3.82028609     -10.21292852      -7.15861175
H       -3.08727799      -6.33071590      -2.28784871
H       -3.99273777      -5.85431097      -3.72921081
H       -3.14392809      -1.59128454      -3.12086662
H       -2.03043436       0.62706422      -1.97984536
H       -1.98162867      -8.13387656      -3.18213719
H       -0.39141270      -7.57393968      -3.67441993
H       -0.87566533      -8.91751864      -7.83083975
H       -1.91503199     -10.46709766      -9.82525552
O       -6.40481826       2.27300878       3.15045533
C       -6.09083897       1.85628877       4.26930019
C       -4.77614061       2.25531091       4.92931782
O       -3.73197896       2.41929873       3.96680158
C       -3.29063223       1.23407854       3.44299526
O       -3.68243219       0.13916428       3.82938963
C       -2.32630476       1.47868650       2.39792418
C       -1.86739832       2.63555292       1.79220481
C       -0.93251458       2.23939159       0.80287543
C       -0.86732635       0.86732635       0.86732635
O       -1.70449039       0.39788246       1.82799549
C       -7.01638003       0.94787410       5.06260356
O       -8.31301000       1.52767138       5.20599267
C       -8.41217158       2.43304394       6.22294148
O       -7.48564959       2.70742563       6.97683730
C       -9.74180568       2.99384454       6.25087209
C      -10.79340226       2.94949381       5.35125158
C      -11.85082665       3.70447502       5.91611606
C      -11.39065678       4.15461049       7.13147240
Br     -12.36997775       5.19482528       8.33072483
O      -10.11433533       3.73749123       7.33999980
H       -4.47835227       1.53173248       5.69575784
H       -4.93233305       3.21849528       5.42543122
H       -2.18469811       3.64225455       2.02912657
H       -0.38058354       2.87661916       0.12601279
H       -6.58430728       0.68035850       6.03297663
H       -7.12498496       0.01439736       4.50038998
H      -10.78552801       2.44434955       4.39414616
H      -12.82503592       3.89514012       5.48720912
O        6.29673772      -2.00231453       3.52923012
C        5.85088021      -1.72021559       4.64533211
C        4.52767518      -2.28986673       5.14322743
O        3.58936127      -2.45177227       4.07694573
C        3.08558991      -1.26482835       3.61728778
O        3.33902334      -0.18135354       4.13060922
C        2.24104267      -1.49218399       2.46968878
C        1.94554520      -2.62236009       1.72725075
C        1.06561348      -2.21678660       0.69238152
C        0.86732635      -0.86732635       0.86732635
O        1.57194012      -0.41991250       1.93851572
C        6.61645418      -0.81418666       5.59621685
O        7.94457039      -1.29205449       5.81004916
C        8.04068657      -2.27665202       6.75081841
O        7.08288848      -2.69830139       7.38872265
C        9.40962168      -2.72207766       6.85482297
C       10.52540646      -2.50432906       6.06441213
C       11.59662654      -3.21574536       6.65904583
C       11.07846225      -3.81502639       7.78325102
Br      12.04469938      -4.87528894       8.97553954
O        9.75564780      -3.52965800       7.90652056
H        4.09930042      -1.66908564       5.93745653
H        4.73021315      -3.27830922       5.56773718
H        2.33408051      -3.61601747       1.90598126
H        0.63538716      -2.83279452      -0.08496618
H        6.08005586      -0.67630798       6.54127858
H        6.68500160       0.17355837       5.12832907
H       10.55210978      -1.91454162       5.15737232
H       12.61741822      -3.28168386       6.30828309
