142
Properties=species:S:1:pos:R:3 pbc="F F F"
O        2.43834356       3.44240768      -9.02313897
C        1.69697538       3.80124396      -8.11168259
C        2.20329553       4.75979387      -7.02301923
O        2.60542221       4.13537764      -5.80320788
C        1.59697412       3.72620891      -4.99831895
O        0.40596569       3.80801487      -5.25706483
C        2.12548149       3.12819313      -3.75730408
C        3.42688464       3.34833892      -3.32018734
N        3.93207927       2.83518245      -2.17051932
C        3.09968589       2.06393181      -1.42997570
C        1.78867112       1.78867112      -1.78867112
C        1.28935173       2.33213452      -2.96827397
N        0.37482020       3.43314930      -7.93259630
C       -0.41924047       2.63764999      -8.77814772
C       -0.02639109       2.22051358     -10.05115317
C       -0.87470727       1.42634066     -10.83156337
C       -2.12138660       1.04961622     -10.33895132
Br      -3.25908277      -0.03487779     -11.38751739
C       -2.53158754       1.46825929      -9.07667410
C       -1.68365646       2.26464535      -8.30131609
H        1.45398746       5.53901801      -6.83088294
H        3.08228957       5.27879284      -7.42443568
H        4.12610992       3.96509813      -3.87893972
H        3.53577195       1.66738965      -0.51691488
H        0.26466898       2.13859193      -3.27584112
H       -0.03520150       3.68069656      -7.03037217
H        0.93490020       2.50102057     -10.47207635
H       -0.54773915       1.10991455     -11.81889668
H       -3.50494197       1.18026645      -8.68572994
H       -2.02063789       2.57967551      -7.31720169
O       -1.11979888      -8.10822624      -5.67586509
C       -1.28938065      -7.82886046      -4.49166080
C       -2.65659701      -7.33755639      -3.99195523
O       -2.77674176      -5.92208322      -3.84518276
C       -2.17000444      -5.39593363      -2.75556391
O       -1.50766430      -6.02151225      -1.94186884
C       -2.38575381      -3.93790202      -2.68732288
C       -3.39975712      -3.30136407      -3.39428970
N       -3.63985065      -1.96774751      -3.33018289
C       -2.82576958      -1.23991046      -2.52791336
C       -1.78867112      -1.78867112      -1.78867112
C       -1.56580268      -3.16009795      -1.86385959
N       -0.34551439      -7.91226157      -3.48278983
C        0.97266031      -8.39414036      -3.57507719
C        1.49126958      -9.03470223      -4.70184301
C        2.81694759      -9.48388027      -4.71626408
C        3.62674708      -9.29441071      -3.59951731
Br       5.42037739      -9.88783673      -3.62609750
C        3.11976177      -8.66855135      -2.46455627
C        1.79418004      -8.22462590      -2.45185912
H       -2.91978776      -7.84797350      -3.05612715
H       -3.40760857      -7.65016826      -4.72774125
H       -4.07957577      -3.84665056      -4.04392144
H       -3.04385595      -0.17558386      -2.50063667
H       -0.76335061      -3.62186668      -1.29388473
H       -0.60452176      -7.47426381      -2.59708166
H        0.88772117      -9.20739452      -5.58832377
H        3.20161067      -9.97742641      -5.60525634
H        3.74521948      -8.51900601      -1.58726790
H        1.41704094      -7.73602597      -1.55725427
O       -0.95492637       6.26242629       7.68653754
C       -0.76130934       6.37036185       6.47823073
C       -1.94154176       6.53588254       5.50868432
O       -2.35655739       5.34005816       4.84739219
C       -1.55930746       4.92821943       3.83397510
O       -0.51748273       5.46460356       3.48895910
C       -2.09890335       3.70784084       3.20423452
C       -3.42274929       3.31249125       3.36017036
N       -3.95422694       2.21173722       2.77181689
C       -3.12246529       1.47236930       1.99875881
C       -1.78867112       1.78867112       1.78867112
C       -1.26704120       2.92675297       2.39596605
N        0.46561279       6.36850898       5.83766961
C        1.74279289       6.31495125       6.42439888
C        1.97535095       6.42404256       7.79658405
C        3.27843969       6.35809856       8.30353788
C        4.35346622       6.18494086       7.43570630
Br       6.11041994       6.08103801       8.12293876
C        4.13799150       6.08707696       6.06426038
C        2.83571245       6.15728296       5.56073447
H       -1.71974628       7.32547323       4.77866890
H       -2.79821515       6.89575915       6.09154378
H       -4.12600451       3.87874353       3.96539974
H       -3.57889089       0.59716137       1.54402423
H       -0.22631782       3.20446771       2.24831649
H        0.43333450       6.28942699       4.81977474
H        1.16301969       6.56774377       8.50327304
H        3.43684251       6.44213255       9.37578205
H        4.97268650       5.95418485       5.37955607
H        2.68731837       6.07647637       4.48708131
O        0.87159418      -7.00228228       7.03001375
C        0.82294368      -6.98432117       5.80263706
C        2.11155438      -6.90468780       4.96986644
O        2.44827666      -5.60051520       4.49521588
C        1.72051333      -5.15766482       3.44332383
O        0.79372206      -5.75720867       2.92011467
C        2.17385825      -3.81970238       3.01741808
C        3.41620186      -3.30640826       3.37280078
N        3.87147837      -2.09235382       2.97394886
C        3.04453216      -1.35883619       2.19022505
C        1.78867112      -1.78867112       1.78867112
C        1.34557098      -3.04078782       2.20340142
N       -0.31955683      -7.03696073       5.02316190
C       -1.64937487      -7.19147062       5.45446150
C       -2.01281166      -7.48898760       6.76909971
C       -3.36114133      -7.62446019       7.11987790
C       -4.34996711      -7.46443807       6.15270998
Br      -6.17011816      -7.63274625       6.63092874
C       -4.00212046      -7.17992128       4.83554503
C       -2.65444494      -7.04915386       4.48759606
H        2.06577785      -7.61999493       4.13811563
H        2.93785313      -7.23813572       5.60952924
H        4.11349305      -3.86266596       3.99398877
H        3.43852884      -0.39148679       1.89006085
H        0.36762838      -3.40864232       1.90283132
H       -0.18814056      -6.83310519       4.03090260
H       -1.26952784      -7.62871594       7.54880902
H       -3.62226450      -7.85324957       8.15008701
H       -4.76853259      -7.05589968       4.07368733
H       -2.40266102      -6.82445281       3.45444751
C       -0.00445707       0.01189536      -1.78238275
H       -0.66409135       0.67374010      -2.43557963
H        0.65740317      -0.63156657      -2.45157240
C       -0.90989263      -0.90692880      -0.91072765
C        0.90977584       0.90977584      -0.90977584
C       -0.00465871       1.77757030       0.00794375
H       -0.66225468       2.44313916      -0.64384735
H        0.64322798       2.43503045       0.67728295
C       -1.78241447       0.00034974      -0.00472694
H       -2.45427497      -0.65498947       0.64260836
H       -2.43311707       0.67328779      -0.65473579
C       -0.91132561       0.90220522       0.91563759
C       -0.01476271      -0.02253852       1.78660255
H       -0.67934791      -0.69751639       2.42135241
H        0.63392994       0.61504881       2.47327442
C        0.01484550      -1.77751727      -0.01636693
H        0.67870853      -2.42144646      -0.68295456
H       -0.62264859      -2.45592969       0.64226336
C        1.78714474       0.01002794       0.00389507
H        2.44202412       0.67113390       0.66197326
H        2.45385902      -0.65136977      -0.64189061
C        0.91606151      -0.90478549       0.90901405
