121
Properties=species:S:1:pos:R:3 pbc="F F F"
C        0.00000000       0.00000000       0.00000000
O        1.52843953       2.53250366      -8.11323495
C        0.78707135       2.89133993      -7.20177856
C        1.29339150       3.84988984      -6.11311521
O        1.69551819       3.22547362      -4.89330386
C        0.68707010       2.81630488      -4.08841493
O       -0.50393833       2.89811085      -4.34716081
C        1.21557747       2.21828911      -2.84740006
C        2.51698061       2.43843489      -2.41028331
N        3.02217525       1.92527843      -1.26061529
C        2.18978187       1.15402779      -0.52007168
C        0.87876709       0.87876709      -0.87876709
C        0.37944771       1.42223049      -2.05836994
N       -0.53508383       2.52324527      -7.02269228
C       -1.32914449       1.72774597      -7.86824369
C       -0.93629512       1.31060956      -9.14124914
C       -1.78461130       0.51643664      -9.92165934
C       -3.03129063       0.13971220      -9.42904729
Br      -4.16898679      -0.94478182     -10.47761337
C       -3.44149157       0.55835527      -8.16677008
C       -2.59356048       1.35474133      -7.39141206
H        0.54408344       4.62911398      -5.92097892
H        2.17238555       4.36888881      -6.51453165
H        3.21620590       3.05519411      -2.96903569
H        2.62586792       0.75748563       0.39298914
H       -0.64523505       1.22868790      -2.36593709
H       -0.94510553       2.77079254      -6.12046815
H        0.02499618       1.59111654      -9.56217233
H       -1.45764317       0.20001052     -10.90899266
H       -4.41484599       0.27036243      -7.77582592
H       -2.93054191       1.66977148      -6.40729767
O       -0.13290882      -7.03565568      -5.00561363
C       -0.27022547      -6.80268852      -3.80727585
C       -1.63493652      -6.37684414      -3.24461589
O       -1.79774580      -4.97224039      -3.04430947
C       -1.17134445      -4.46235438      -1.95809108
O       -0.46006346      -5.09152876      -1.18974110
C       -1.43384041      -3.01593495      -1.83149127
C       -2.49299480      -2.39176232      -2.48094171
N       -2.77573591      -1.07032359      -2.36200948
C       -1.95914722      -0.34198379      -1.56275032
C       -0.87876709      -0.87876709      -0.87876709
C       -0.61233823      -2.23819973      -1.00951018
N        0.71072294      -6.88706999      -2.83450668
C        2.04041880      -7.31902293      -2.98824105
C        2.54059894      -7.90246270      -4.15369982
C        3.87941195      -8.30412866      -4.22876797
C        4.72099156      -8.12432023      -3.13414019
Br       6.53166080      -8.65324039      -3.24226516
C        4.23320705      -7.55543549      -1.96140533
C        2.89460770      -7.15895409      -1.88824652
H       -1.84770405      -6.92758847      -2.31888382
H       -2.40026660      -6.69049331      -3.96504610
H       -3.17631263      -2.93823153      -3.12589155
H       -2.21207570       0.71250480      -1.49079351
H        0.22479152      -2.69058866      -0.48359281
H        0.46824507      -6.48868286      -1.92571737
H        1.91253171      -8.06608209      -5.02473467
H        4.24916280      -8.75348032      -5.14704250
H        4.88361935      -7.41385578      -1.10110593
H        2.53273627      -6.71446906      -0.96479444
O        0.02915840       5.86426354       6.33907299
C        0.12257354       5.88836814       5.11439525
C       -1.13632250       5.88632773       4.23374633
O       -1.50160171       4.61331337       3.69938059
C       -0.75165272       4.18166394       2.65847325
O        0.21471066       4.76476844       2.19127554
C       -1.23641293       2.87748378       2.16736993
C       -2.50861199       2.39820010       2.45888673
N       -2.99187726       1.21686889       1.99932283
C       -2.16319487       0.48168347       1.21900300
C       -0.87876709       0.87876709       0.87876709
C       -0.40689065       2.09799402       1.35516347
N        1.29431774       5.92645600       4.37871547
C        2.61191457       6.01608840       4.86267134
C        2.93679413       6.25278544       6.19957227
C        4.27518109       6.32559636       6.60306942
C        5.29281098       6.16370229       5.66657756
Br       7.09884574       6.24727325       6.21541724
C        4.98405891       5.93950091       4.32819177
C        3.64638848       5.87126362       3.92771776
H       -1.03424054       6.62870283       3.43123297
H       -1.97331251       6.22709575       4.85539776
H       -3.20812177       2.95736324       3.07495069
H       -2.58010482      -0.45906518       0.86932477
H        0.59403175       2.43986808       1.10355361
H        1.19255381       5.76318460       3.37552437
H        2.17060068       6.39201239       6.95687333
H        4.50596480       6.50760765       7.64971716
H        5.77324973       5.81446535       3.59012674
H        3.42518659       5.69309426       2.87861957
O        1.45240192      -2.62350163       8.09827459
C        0.72859289      -2.97977433       7.17182262
C        1.26296162      -3.91615094       6.07728399
O        1.67302664      -3.26946792       4.87180111
C        0.67009710      -2.86300475       4.05868807
O       -0.52308737      -2.96464647       4.29977422
C        1.20717410      -2.24069730       2.83339523
C        2.51735028      -2.43697218       2.41137636
N        3.03104641      -1.90109142       1.27593115
C        2.19824516      -1.13110117       0.53453500
C        0.87876709      -0.87876709       0.87876709
C        0.37095592      -1.44528335       2.04380887
N       -0.59596346      -2.62732868       6.97948851
C       -1.41243962      -1.85453542       7.82474937
C       -1.04282925      -1.44974088       9.10865195
C       -1.91264252      -0.67811273       9.88801447
C       -3.15757434      -0.31166622       9.38337699
Br      -4.32439605       0.74256194      10.43080275
C       -3.54465868      -0.71835271       8.10993974
C       -2.67526879      -1.49226880       7.33559289
H        0.52721062      -4.70280176       5.86416396
H        2.14349363      -4.42860441       6.48370798
H        3.21735228      -3.05180169       2.97128173
H        2.64122885      -0.71603320      -0.36689765
H       -0.66041428      -1.27003286       2.33977137
H       -0.99015596      -2.86793540       6.06837572
H       -0.08358470      -1.72289350       9.53897625
H       -1.60360425      -0.37095325      10.88401101
H       -4.51647722      -0.43829558       7.70952400
H       -2.99438176      -1.79821394       6.34269506
