150
Properties=species:S:1:pos:R:3 pbc="F F F"
O        2.43834356       3.44240768      -9.02313897
C        1.69697538       3.80124396      -8.11168259
C        2.20329553       4.75979387      -7.02301923
O        2.60542221       4.13537764      -5.80320788
C        1.59697412       3.72620891      -4.99831895
O        0.40596569       3.80801487      -5.25706483
C        2.12548149       3.12819313      -3.75730408
C        3.42688464       3.34833892      -3.32018734
N        3.93207927       2.83518245      -2.17051932
C        3.09968589       2.06393181      -1.42997570
C        1.78867112       1.78867112      -1.78867112
C        1.28935173       2.33213452      -2.96827397
N        0.37482020       3.43314930      -7.93259630
C       -0.41924047       2.63764999      -8.77814772
C       -0.02639109       2.22051358     -10.05115317
C       -0.87470727       1.42634066     -10.83156337
C       -2.12138660       1.04961622     -10.33895132
C       -2.53158754       1.46825929      -9.07667410
C       -1.68365646       2.26464535      -8.30131609
H        1.45398746       5.53901801      -6.83088294
H        3.08228957       5.27879284      -7.42443568
H        4.12610992       3.96509813      -3.87893972
H        3.53577195       1.66738965      -0.51691488
H        0.26466898       2.13859193      -3.27584112
H       -0.03520150       3.68069656      -7.03037217
H        0.93490020       2.50102057     -10.47207635
H       -0.54773915       1.10991455     -11.81889668
H       -3.50494197       1.18026645      -8.68572994
H       -2.02063789       2.57967551      -7.31720169
C       -2.98846120       0.22308868     -11.13809703
C       -3.71463618      -0.46912814     -11.80738156
Br      -4.88879970      -1.58838418     -12.88955804
O       -3.01889477      -9.06278961      -2.82220583
C       -3.38377474      -8.22688804      -1.99923914
C       -4.44188549      -7.17591102      -2.36831211
O       -3.92517476      -5.89334468      -2.72548829
C       -3.50044336      -5.12832258      -1.69273604
O       -3.48443334      -5.46731880      -0.51929325
C       -3.01996205      -3.81839554      -2.17262111
C       -3.35547209      -3.31530999      -3.42462882
N       -2.95208129      -2.10358717      -3.88211259
C       -2.17471824      -1.36680202      -3.05207314
C       -1.78867112      -1.78867112      -1.78867112
C       -2.22073115      -3.03188556      -1.33714351
N       -2.93877157      -8.10770971      -0.69408451
C       -2.03891085      -8.94603516      -0.01161123
C       -1.56927046     -10.16013407      -0.51587113
C       -0.67118740     -10.93714528       0.22513592
C       -0.24268156     -10.50041305       1.47591367
C       -0.71195924      -9.29820268       1.99681608
C       -1.61189804      -8.52639671       1.25598977
H       -5.17899827      -7.08529468      -1.55959546
H       -4.99284919      -7.55492356      -3.23774533
H       -3.98153147      -3.86906526      -4.11955105
H       -1.86767432      -0.40298673      -3.44941543
H       -1.93877235      -3.39017945      -0.35015022
H       -3.21479069      -7.25234097      -0.20873558
H       -1.88713365     -10.53711223      -1.48375124
H       -0.31552360     -11.87785602      -0.18769246
H       -0.38391415      -8.95133203       2.97419175
H       -1.96528614      -7.58943334       1.67848017
C        0.69008365     -11.29507220       2.23226405
C        1.47127451     -11.96059924       2.86570749
Br       2.73439407     -13.03670018       3.88993196
O       -1.79267969       8.79693363       4.31427690
C       -2.10029595       8.25298408       3.25662189
C       -3.40050081       7.44245455       3.14315326
O       -3.24736575       6.02810983       3.26853216
C       -2.73985072       5.39872047       2.18293080
O       -2.37080604       5.94543754       1.15480181
C       -2.65654681       3.94336035       2.41107155
C       -3.38025947       3.30385242       3.41129900
N       -3.34553209       1.96502523       3.62722373
C       -2.54734217       1.23646464       2.80978660
C       -1.78867112       1.78867112       1.78867112
C       -1.84594761       3.16327475       1.58053786
N       -1.38084935       8.28505395       2.07466250
C       -0.19551984       8.99352614       1.80751127
C        0.36345436       9.93306461       2.67566540
C        1.54949978      10.59515294       2.33754360
C        2.17805172      10.31909896       1.12613370
C        1.62582043       9.39400541       0.24516086
C        0.43907151       8.73735065       0.58402583
H       -3.91985069       7.69478669       2.20925102
H       -4.06307822       7.76805043       3.95438943
H       -4.03729876       3.84782514       4.08502387
H       -2.54104553       0.16841709       3.01061386
H       -1.26630210       3.62675864       0.78604129
H       -1.69066692       7.63502217       1.35017814
H       -0.10229366      10.18037651       3.62532695
H        1.96937155      11.32083436       3.02960927
H        2.10943461       9.17463948      -0.70415045
H        0.02446075       8.01655309      -0.11585303
C        3.40423609      10.99243222       0.78452838
C        4.43116551      11.55634883       0.49843392
Br       6.09162352      12.46815429       0.03584339
O        2.25025426      -3.67240361       8.98123234
C        1.55328343      -4.02395631       8.03266217
C        2.12957985      -4.92596695       6.93056183
O        2.55067713      -4.24582819       5.74750242
C        1.55636553      -3.84309194       4.92204452
O        0.36087323      -3.97428141       5.13589075
C        2.10533892      -3.18429113       3.72134866
C        3.42774583      -3.34468641       3.32297865
N        3.95331541      -2.77464166       2.20982398
C        3.11995341      -2.00654297       1.46709702
C        1.78867112      -1.78867112       1.78867112
C        1.26901854      -2.38983841       2.93090327
N        0.22585501      -3.69485745       7.81985335
C       -0.62386829      -2.95692686       8.66349867
C       -0.28931063      -2.57165858       9.96292771
C       -1.19096874      -1.83460591      10.73955959
C       -2.43268018      -1.48331964      10.21654148
C       -2.78487970      -1.87105798       8.92716756
C       -1.88369988      -2.61051160       8.15549326
H        1.41504068      -5.72293103       6.68591670
H        3.01213282      -5.42862732       7.34475794
H        4.12884026      -3.95661192       3.88469559
H        3.57256594      -1.56362481       0.58388573
H        0.22833017      -2.24208034       3.20869151
H       -0.14438491      -3.92433941       6.89591273
H        0.66640636      -2.83400485      10.40758591
H       -0.90898844      -1.54213241      11.74792811
H       -3.75392509      -1.60269650       8.51228302
H       -2.17583974      -2.90204344       7.15003560
C       -3.35484578      -0.71524497      11.01232531
C       -4.12715947      -0.07198244      11.67879427
Br      -5.37592539       0.96811867      12.75641821
C       -0.00445707       0.01189536      -1.78238275
H       -0.66409135       0.67374010      -2.43557963
H        0.65740317      -0.63156657      -2.45157240
C       -0.90989263      -0.90692880      -0.91072765
C        0.90977584       0.90977584      -0.90977584
C       -0.00465871       1.77757030       0.00794375
H       -0.66225468       2.44313916      -0.64384735
H        0.64322798       2.43503045       0.67728295
C       -1.78241447       0.00034974      -0.00472694
H       -2.45427497      -0.65498947       0.64260836
H       -2.43311707       0.67328779      -0.65473579
C       -0.91132561       0.90220522       0.91563759
C       -0.01476271      -0.02253852       1.78660255
H       -0.67934791      -0.69751639       2.42135241
H        0.63392994       0.61504881       2.47327442
C        0.01484550      -1.77751727      -0.01636693
H        0.67870853      -2.42144646      -0.68295456
H       -0.62264859      -2.45592969       0.64226336
C        1.78714474       0.01002794       0.00389507
H        2.44202412       0.67113390       0.66197326
H        2.45385902      -0.65136977      -0.64189061
C        0.91606151      -0.90478549       0.90901405
