134
Properties=species:S:1:pos:R:3 pbc="F F F"
C        1.78773812       1.78773812      -1.78773812
C        2.94211319       2.37020891      -1.28398082
C        3.72149822       3.16976698      -2.12376463
C        3.31906692       3.36678324      -3.44290659
N        2.20101959       2.80377703      -3.93488623
C        1.45935165       2.02908924      -3.10883920
N        4.12016191       4.17368647      -4.24834263
C        3.86527131       4.51471702      -5.55899208
O        2.90517684       4.18773160      -6.24446575
C        4.92273543       5.38429697      -6.10994759
C        4.94602540       5.95579711      -7.40284777
C        6.10959227       6.67955120      -7.47184007
N        6.65101511       7.43556403      -8.47401841
C        7.80084436       7.98378199      -8.20866449
C        8.56097546       7.85746318      -6.92754492
C        7.97029155       7.11010961      -5.98577919
N        6.74080266       6.51244706      -6.23666796
N        6.01311912       5.73267759      -5.39418660
H        3.24249893       2.21262972      -0.25218168
H        4.62442028       3.62963351      -1.73666048
H        0.57098305       1.60254644      -3.56575207
H        4.96976643       4.56862839      -3.86477271
H        4.20289734       5.84912788      -8.18095518
H        8.27467052       8.60355953      -8.98873951
H        8.39583940       6.92725730      -5.00893437
C        9.83179612       8.51954319      -6.78519002
C       10.89610842       9.07403519      -6.66596778
Br      12.61701140       9.97060186      -6.47319552
C       -1.78773812      -1.78773812      -1.78773812
C       -1.43480136      -2.05953924      -3.10196232
C       -2.26866495      -2.87129215      -3.87507273
C       -3.43487982      -3.38331727      -3.31055965
N       -3.78023901      -3.12232914      -2.03711470
C       -2.95933235      -2.33705287      -1.30089487
N       -4.24271069      -4.18528751      -4.11419282
C       -5.44716921      -4.74505682      -3.74675437
O       -6.02537563      -4.63902724      -2.67297132
C       -6.03566366      -5.53731169      -4.84400464
C       -7.28446560      -6.19964816      -4.82055651
C       -7.41271339      -6.80134406      -6.04692609
N       -8.40900782      -7.56947694      -6.58211279
C       -8.19892777      -8.00383829      -7.79052477
C       -6.98544048      -7.73820626      -8.62233683
C       -6.05258528      -6.97249821      -8.04109686
N       -6.24727166      -6.49060487      -6.75204114
N       -5.40714894      -5.70597695      -6.02685743
H       -0.52515701      -1.65033790      -3.53181541
H       -2.00011939      -3.08694423      -4.90365066
H       -3.29247452      -2.16546078      -0.28134627
H       -3.95232821      -4.38827606      -5.06256327
H       -7.99653280      -6.22901274      -4.00743486
H       -8.97724072      -8.62724548      -8.26248337
H       -5.12260302      -6.69311543      -8.51631261
C       -6.89311527      -8.29723195      -9.94618211
C       -6.81579290      -8.76541596     -11.05490254
Br      -6.69076918      -9.52242991     -12.84760969
C       -1.78773812       1.78773812       1.78773812
C       -2.93463954       2.38152601       1.28013737
C       -3.71430129       3.18067188       2.12005666
C       -3.31959103       3.36593778       3.44322794
N       -2.20880238       2.79194280       3.93893767
C       -1.46678079       2.01783110       3.11266820
N       -4.12067624       4.17281118       4.24870360
C       -3.87246096       4.50315397       5.56336547
O       -2.91933726       4.16493415       6.25310279
C       -4.92773189       5.37619157       6.11305653
C       -4.95599321       5.93902120       7.40965585
C       -6.11505064       6.67024890       7.47568399
N       -6.65817116       7.42311438       8.47931201
C       -7.80239464       7.98099656       8.20989963
C       -8.55456729       7.86861823       6.92279804
C       -7.96254322       7.12366252       5.97997460
N       -6.73890131       6.51589043       6.23512593
N       -6.01078541       5.73690506       5.39229285
H       -3.22901043       2.23303919       0.24526071
H       -4.61139602       3.64934301       1.72997525
H       -0.58449054       1.58210658       3.57268445
H       -4.96492222       4.57617114       3.86207418
H       -4.21896071       5.82196401       8.19205568
H       -8.27732659       8.59868201       8.99096097
H       -8.38261922       6.95038765       4.99902419
C       -9.81984450       8.54034911       6.77633571
C      -10.87951416       9.10292373       6.65367351
Br     -12.59291037      10.01255930       6.45533910
C        1.78773812      -1.78773812       1.78773812
C        1.42524173      -2.07500334       3.09605785
C        2.25945979      -2.88619267       3.86937738
C        3.43554637      -3.38216454       3.31104583
N        3.79019041      -3.10616083       2.04333161
C        2.96883442      -2.32166975       1.30677592
N        4.24336140      -4.18409621       4.11473342
C        5.45631531      -4.72928984       3.75337525
O        6.04338766      -4.60794248       2.68604405
C        6.04201458      -5.52626266       4.84870275
C        7.29709050      -6.17680752       4.83077225
C        7.41961818      -6.78868396       6.05268140
N        8.41804126      -7.55254449       6.59001180
C        8.20087821      -8.00005368       7.79235895
C        6.97735162      -7.75337767       8.61525428
C        6.04280959      -6.99092806       8.03244269
N        6.24488158      -6.49528232       6.74975378
N        5.40421542      -5.71171947       6.02404843
H        0.50790256      -1.67822692       3.52118085
H        1.98345896      -3.11387665       4.89337867
H        3.30975314      -2.13753031       0.29199812
H        3.94614733      -4.39857257       5.05844763
H        8.01686853      -6.19203444       4.02407744
H        8.98057452      -8.62062265       8.26577240
H        5.10592425      -6.72456885       8.50153796
C        6.87802913      -8.32552898       9.93297121
C        6.79484654      -8.80470571      11.03655914
Br       6.66034734      -9.57949395      12.82096749
C       -0.00445707       0.01189536      -1.78238275
H       -0.66409135       0.67374010      -2.43557963
H        0.65740317      -0.63156657      -2.45157240
C       -0.90989263      -0.90692880      -0.91072765
C        0.90977584       0.90977584      -0.90977584
C       -0.00465871       1.77757030       0.00794375
H       -0.66225468       2.44313916      -0.64384735
H        0.64322798       2.43503045       0.67728295
C       -1.78241447       0.00034974      -0.00472694
H       -2.45427497      -0.65498947       0.64260836
H       -2.43311707       0.67328779      -0.65473579
C       -0.91132561       0.90220522       0.91563759
C       -0.01476271      -0.02253852       1.78660255
H       -0.67934791      -0.69751639       2.42135241
H        0.63392994       0.61504881       2.47327442
C        0.01484550      -1.77751727      -0.01636693
H        0.67870853      -2.42144646      -0.68295456
H       -0.62264859      -2.45592969       0.64226336
C        1.78714474       0.01002794       0.00389507
H        2.44202412       0.67113390       0.66197326
H        2.45385902      -0.65136977      -0.64189061
C        0.91606151      -0.90478549       0.90901405
