113
Properties=species:S:1:pos:R:3 pbc="F F F"
C        0.00000000       0.00000000       0.00000000
C        0.87783410       0.87783410      -0.87783410
C        2.03220917       1.46030489      -0.37407680
C        2.81159420       2.25986296      -1.21386060
C        2.40916289       2.45687922      -2.53300256
N        1.29111557       1.89387300      -3.02498221
C        0.54944763       1.11918521      -2.19893517
N        3.21025789       3.26378245      -3.33843861
C        2.95536728       3.60481299      -4.64908805
O        1.99527282       3.27782758      -5.33456173
C        4.01283141       4.47439294      -5.20004357
C        4.03612137       5.04589309      -6.49294374
C        5.19968825       5.76964718      -6.56193604
N        5.74111108       6.52566001      -7.56411439
C        6.89094033       7.07387797      -7.29876046
C        7.65107144       6.94755916      -6.01764090
C        7.06038753       6.20020558      -5.07587516
N        5.83089863       5.60254303      -5.32676393
N        5.10321510       4.82277357      -4.48428258
H        2.33259491       1.30272569       0.65772235
H        3.71451626       2.71972948      -0.82675646
H       -0.33892097       0.69264242      -2.65584805
H        4.05986241       3.65872436      -2.95486869
H        3.29299332       4.93922386      -7.27105116
H        7.36476650       7.69365551      -8.07883549
H        7.48593538       6.01735327      -4.09903034
C        8.92189210       7.60963916      -5.87528599
C        9.98620440       8.16413116      -5.75606376
Br      11.70710738       9.06069784      -5.56329149
C       -0.87783410      -0.87783410      -0.87783410
C       -0.51627999      -1.16355917      -2.18675168
C       -1.35046310      -1.97480463      -2.96005003
C       -2.52557671      -2.47237529      -2.40109268
N       -2.87930555      -2.19786705      -1.13279818
C       -2.05799380      -1.41329780      -0.39627642
N       -3.33339335      -3.27431076      -3.20477484
C       -4.54551057      -3.82095563      -2.84280213
O       -5.13170982      -3.70113334      -1.77481895
C       -5.13148519      -4.61745866      -3.93832406
C       -6.38594406      -5.26917707      -3.91983707
C       -6.50903479      -5.88004006      -5.14219662
N       -7.50724874      -6.64432566      -5.67931107
C       -7.29078245      -7.09052626      -6.88227005
C       -6.06824317      -6.84196372      -7.70606460
C       -5.13386698      -6.07918986      -7.12341144
N       -5.33521247      -5.58491286      -5.84008027
N       -4.49459972      -4.80124403      -5.11442749
H        0.40030069      -0.76554527      -2.61235367
H       -1.07519716      -2.20129028      -3.98451477
H       -2.39814596      -1.23040803       0.61898450
H       -3.03685230      -3.48764322      -4.14895994
H       -7.10496342      -5.28581117      -3.11249374
H       -8.07034291      -7.71137760      -7.35553699
H       -4.19766053      -5.81153452      -7.59312395
C       -5.96960890      -7.41280871      -9.02439964
C       -5.88700270      -7.89089140     -10.12850523
Br      -5.75343545      -8.66391066     -11.91375059
C       -0.87783410       0.87783410       0.87783410
C       -2.00801626       1.49630531       0.36226928
C       -2.78829674       2.29455235       1.20246867
C       -2.41086197       2.45418811       2.53399460
N       -1.31631151       1.85622603       3.03743323
C       -0.57349684       1.08337210       2.21069908
N       -3.21192741       3.26099504       3.33955649
C       -2.97867309       3.56800891       4.66258632
O       -2.04117602       3.20526475       5.36122135
C       -4.02903113       4.44859215       5.20964464
C       -4.06846835       4.99247487       6.51401498
C       -5.21740697       5.74002331       6.57384119
N       -5.76435285       6.48600605       7.58052658
C       -6.89597964       7.06500354       7.30259558
C       -7.63025837       6.98308979       6.00292333
C       -7.03521866       6.24337560       5.05787402
N       -5.82471689       5.61351438       5.32197433
N       -5.09562756       4.83624327       4.47840042
H       -2.28893212       1.36764903      -0.67898290
H       -3.67235610       2.78242629       0.80621982
H        0.29519665       0.62762235       2.67714380
H       -4.04417135       3.68272486       2.94655926
H       -3.34512740       4.85272438       7.30541655
H       -7.37340524       7.67811284       8.08573942
H       -7.44299201       6.09103044       4.06829655
C       -8.88307441       7.67590946       5.84783338
C       -9.93230784       8.25614592       5.71794556
Br     -11.62882956       9.19433921       5.50792793
C        0.87783410      -0.87783410       0.87783410
C        0.50739703      -1.17822149       2.18097232
C        1.34190966      -1.98893249       2.95447560
C        2.52619493      -2.47128303       2.40156671
N        2.88855147      -2.18253770       1.13888161
C        2.06682308      -1.39871238       0.40203256
N        3.33399587      -3.27318254       3.20530054
C        4.55399439      -3.80601533       2.84925861
O        5.14841703      -3.67167871       1.78756638
C        5.13737469      -4.60698984       3.94290339
C        6.39763827      -5.24754357       3.92977636
C        6.51542799      -5.86805047       5.14779301
N        7.51560721      -6.62829310       5.68698517
C        7.29258519      -7.08694383       6.88404975
C        6.06075885      -6.85632876       7.69918388
C        5.12482335      -6.09663939       7.11500554
N        5.33300399      -5.58934011       5.83786150
N        4.49188913      -4.80667937       5.11170274
H       -0.41633416      -0.79198852       2.60194388
H        1.05971574      -2.22682648       3.97445998
H        2.41420184      -1.20392551      -0.60855785
H        3.03111350      -3.49740305       4.14493891
H        7.12379716      -5.25078878       3.12868240
H        8.07342188      -7.70510979       7.35872581
H        4.18223090      -5.84131478       7.57877332
C        5.95565027      -7.43960174       9.01156524
C        5.86762184      -7.92809286      10.11068462
Br       5.72528732      -8.71794168      11.88786771
