153
Properties=species:S:1:pos:R:3 pbc="F F F"
C        0.00000000       0.00000000       0.00000000
C        0.88140119       0.88140119      -0.88140119
C        2.26066951       0.87891334      -0.69865329
C        3.06696826       1.67777259      -1.51225851
C        2.50117623       2.48039662      -2.51318964
C        1.11225250       2.48090025      -2.68534664
C        0.30098834       1.67622121      -1.86701219
S        0.31512865       3.43487101      -3.95254584
O        0.90243172       3.04420067      -5.21536506
O       -1.11526489       3.33132264      -3.75114517
N        0.76207920       5.03229052      -3.59611894
C        0.67718521       5.98842714      -4.74464603
C       -0.76228401       6.46322768      -4.99534859
N       -1.33563672       7.04491219      -3.76979541
C       -1.24307130       6.19840259      -2.56793936
C        0.18495270       5.65206139      -2.36225852
C       -2.61971111       7.57170745      -3.96300584
N       -3.00452288       7.91444803      -5.20565174
C       -4.24489349       8.41243147      -5.36785052
C       -5.12688525       8.59758213      -4.33680858
C       -4.65200604       8.24200510      -3.10241531
N       -3.42055005       7.73834328      -2.89464757
H        2.71985803       0.25671445       0.06604437
H        4.14500143       1.66074673      -1.36080843
H       -0.77840880       1.65685149      -2.00641982
H        1.09742720       5.54026812      -5.65086427
H        1.31756944       6.84801124      -4.50807426
H       -0.71777260       7.21050949      -5.79770208
H       -1.37733737       5.62397258      -5.34369404
H       -1.49313093       6.77688933      -1.66919437
H       -1.95657920       5.36924590      -2.63348108
H        0.85083181       6.47505699      -2.07148761
H        0.20230348       4.93988349      -1.53100522
H       -4.51173511       8.66302533      -6.38997950
H       -6.11973572       8.99534640      -4.48555066
H       -5.26263466       8.35058948      -2.21136776
C        3.42745736       3.25508359      -3.29770437
C        4.20321780       3.90388394      -3.95473545
Br       5.45755683       4.95293922      -5.01709914
C       -0.88140119      -0.88140119      -0.88140119
C       -1.61183860      -1.91780583      -0.30859171
C       -2.42578099      -2.71704866      -1.11416971
C       -2.51657745      -2.48425077      -2.49393427
C       -1.77327878      -1.44327902      -3.06194159
C       -0.95482157      -0.63846032      -2.25093986
S       -1.85849658      -1.05255928      -4.79148964
O       -3.24867384      -0.80677883      -5.10654479
O       -0.85915015      -0.04122159      -5.06683118
N       -1.35478707      -2.48242155      -5.55328004
C       -1.79882356      -2.63708887      -6.97434595
C       -0.92247419      -1.82968987      -7.94412820
N        0.49592617      -2.19198025      -7.78301680
C        1.00931476      -2.12871110      -6.40387432
C        0.08447591      -2.86851458      -5.41523394
C        1.33345988      -1.54614126      -8.70232080
N        0.80620388      -1.07501287      -9.84676789
C        1.62894013      -0.45247717     -10.71185145
C        2.97030159      -0.28459037     -10.49321668
C        3.43135372      -0.80881101      -9.31495708
N        2.64457881      -1.43659851      -8.42042110
H       -1.56223122      -2.10913508       0.76083818
H       -2.99558412      -3.52056224      -0.65041024
H       -0.38770022       0.18469769      -2.68185997
H       -2.85130585      -2.35532831      -7.08192543
H       -1.74511762      -3.70471173      -7.22382560
H       -1.27104298      -2.06071991      -8.95867609
H       -1.06442404      -0.75562717      -7.77027804
H        1.99370181      -2.60976648      -6.33688811
H        1.13243718      -1.08491917      -6.09366579
H        0.14857942      -3.94938016      -5.59657568
H        0.42662793      -2.71276663      -4.38705350
H        1.15391984      -0.08064849     -11.61454108
H        3.61517756       0.22051123     -11.19685013
H        4.47910623      -0.73911875      -9.03931007
C       -3.39265269      -3.36310230      -3.22449033
C       -4.12636571      -4.09914046      -3.83633103
Br      -5.31271760      -5.28925190      -4.82562570
C       -0.88140119       0.88140119       0.88140119
C       -0.86388210       2.26227329       0.71208075
C       -1.67817916       3.06692488       1.51189532
C       -2.51522768       2.49745988       2.48207492
C       -2.52135946       1.10793565       2.64920429
C       -1.70242021       0.29819300       1.84360853
S       -3.57809789       0.29984686       3.82460075
O       -4.93544995       0.70064228       3.52590523
O       -3.22144408      -1.10354125       3.84930009
N       -3.11057403       0.96711939       5.31279524
C       -4.13390390       0.87505612       6.40129836
C       -4.16166269      -0.51671537       7.05134493
N       -2.82262895      -0.88513440       7.54157633
C       -1.73599631      -0.76694873       6.55422306
C       -1.75887996       0.60034105       5.84005159
C       -2.80646807      -2.11127734       8.21981145
N       -3.95198451      -2.58174238       8.74533476
C       -3.91339194      -3.76486227       9.38685883
C       -2.77179810      -4.50529520       9.54100256
C       -1.64640512      -3.94827942       8.99428868
N       -1.63954901      -2.76983080       8.34272259
H       -0.22851341       2.72286698      -0.04085228
H       -1.65756885       4.14534050       1.36364725
H       -1.71481316      -0.78459310       1.95464245
H       -5.12549618       1.14168186       6.02138154
H       -3.88527376       1.63368280       7.15469840
H       -4.88044040      -0.46916267       7.87916125
H       -4.52150574      -1.25970815       6.32853166
H       -0.75812356      -0.85095043       7.04577965
H       -1.80391891      -1.57617174       5.81840060
H       -1.46359422       1.38553673       6.54824547
H       -1.01516364       0.62105687       5.03697168
H       -4.86478742      -4.10647689       9.78295919
H       -2.75966849      -5.45441149      10.05590434
H       -0.68311442      -4.44454286       9.06075103
C       -3.31749734       3.42079804       3.24194995
C       -3.98939817       4.19409374       3.87834527
Br      -5.07580500       5.44444750       4.90734270
C        0.88140119      -0.88140119       0.88140119
C        0.68646574      -0.89281559       2.25895481
C        1.48646232      -1.70719812       3.06333891
C        2.48241243      -2.51550397       2.49684609
C        2.67510344      -2.49258460       1.11081135
C        1.86933430      -1.67357239       0.30131505
S        3.88468761      -3.51227642       0.30558147
O        3.60411801      -4.88213906       0.67574039
O        3.92846858      -3.12905106      -1.09031672
N        5.35138176      -3.03007434       1.00903256
C        6.46033528      -4.03135226       0.91857084
C        7.13622333      -4.02114664      -0.46107772
N        7.60801133      -2.66668581      -0.79562626
C        6.59850983      -1.60075870      -0.67599788
C        5.85991516      -1.66230862       0.67704883
C        8.30821697      -2.61515513      -2.00836992
N        8.86361407      -3.74183566      -2.48987285
C        9.52591217      -3.66935927      -3.65988293
C        9.67224784      -2.51148342      -4.37622580
C        9.09445509      -1.40692672      -3.80896743
N        8.42135437      -1.43406701      -2.64298057
H       -0.08654305      -0.28009715       2.71697401
H        1.31808572      -1.70948023       4.13899064
H        2.00043610      -1.66367707      -0.77925067
H        6.09419590      -5.03456279       1.15980090
H        7.19490335      -3.78316387       1.69558774
H        7.97632239      -4.72537236      -0.41125577
H        6.43402404      -4.38024068      -1.22393547
H        7.07315515      -0.61262860      -0.73283097
H        5.87906310      -1.66703291      -1.49994823
H        6.54793255      -1.36880717       1.48063669
H        5.04282466      -0.93397531       0.69639222
H        9.94593605      -4.60677026      -4.01143659
H       10.20416684      -2.47216043      -5.31516593
H        9.15199174      -0.43346766      -4.28613681
C        3.24007982      -3.32081552       3.41934998
C        3.87462626      -3.99526393       4.19194699
Br       4.90063419      -5.08578999       5.44117102
