138
Properties=species:S:1:pos:R:3 pbc="F F F"
C        1.79169731       1.79169731      -1.79169731
C        1.69912892       1.69318467      -3.17817722
C        2.50968399       2.49550706      -3.98310619
C        3.40883278       3.39478728      -3.40064085
Cl       4.39170142       4.34804339      -4.45610751
C        3.49922426       3.50266620      -2.00216282
C        2.68323220       2.68724811      -1.20104688
C        4.42583122       4.42969334      -1.33082437
O        5.57745926       3.79283782      -0.90131946
C        6.53588922       4.53332881      -0.26393550
C        7.68850921       3.86511241       0.14829569
C        8.70120373       4.56604807       0.80704291
C        8.55361443       5.93354888       1.04900190
Br       9.92576175       6.87783696       1.94206447
C        7.40465675       6.60597814       0.63926203
C        6.39620874       5.89536131      -0.01918748
C        5.16721960       6.56901741      -0.46062843
O        4.99569115       7.76453668      -0.25452456
C        4.14931495       5.73669563      -1.15554619
C        2.91043715       6.46394011      -1.58548334
H        1.00474291       0.99577232      -3.64109042
H        2.43807497       2.41298388      -5.06524167
H        2.74833487       2.75273684      -0.11697576
H        7.80198393       2.80146160      -0.04306397
H        9.59757572       4.04044014       1.12634738
H        7.28644386       7.67119551       0.82663028
H        2.16227249       5.80836231      -2.03982546
H        3.16016700       7.23652252      -2.32056071
H        2.43333191       6.94569651      -0.72513200
C       -1.79169731      -1.79169731      -1.79169731
C       -3.02540486      -2.22961634      -1.31546962
C       -3.82796253      -3.04026510      -2.12006962
C       -3.39645199      -3.40949567      -3.39831325
Cl      -4.43393366      -4.42590275      -4.33601592
C       -2.15587496      -2.96293468      -3.88524363
C       -1.35344911      -2.15211611      -3.06596197
C       -1.64744335      -3.31794484      -5.22096074
O       -0.73934919      -4.36156619      -5.17070115
C       -0.18656099      -4.80501496      -6.34157758
C        0.71748847      -5.86372669      -6.25908771
C        1.31749072      -6.35839033      -7.41930927
C        1.00798086      -5.78951116      -8.65663112
Br       1.82334316      -6.46096921     -10.22390819
C        0.10559904      -4.73212013      -8.74485179
C       -0.48958724      -4.24364031      -7.57752999
C       -1.44135100      -3.12539308      -7.63012137
O       -1.72767982      -2.59182680      -8.69524577
C       -2.02818342      -2.67259280      -6.34078056
C       -2.99130982      -1.52764270      -6.44090808
H       -3.36936057      -1.94990101      -0.32234408
H       -4.78868157      -3.38407305      -1.74354590
H       -0.38656361      -1.80612941      -3.42535445
H        0.95504895      -6.30614893      -5.29540952
H        2.02153113      -7.18371088      -7.34948873
H       -0.13731853      -4.28646910      -9.70722147
H       -3.35628500      -1.18586021      -5.46831505
H       -3.86394580      -1.81721369      -7.03609074
H       -2.51292084      -0.66820949      -6.92303008
C       -1.79169731       1.79169731       1.79169731
C       -1.98324744       1.45694595       3.13029743
C       -2.79404138       2.26042785       3.93382802
C       -3.40950959       3.39654064       3.39821068
Cl      -4.41101092       4.33912775       4.44571365
C       -3.21205707       3.74186341       2.05013280
C       -2.39882134       2.92404922       1.24865663
C       -3.83266531       4.92430961       1.42937401
O       -4.96747055       4.59671965       0.70742633
C       -5.65521470       5.59918970       0.07874913
C       -6.79930070       5.23865864      -0.63263341
C       -7.54182737       6.21662745      -1.29824594
C       -7.13398284       7.55133254      -1.24715395
Br      -8.14084228       8.87123696      -2.15054500
C       -5.99229301       7.91704271      -0.53796285
C       -5.25536918       6.93055928       0.12482908
C       -4.04205025       7.27706782       0.87774738
O       -3.64537899       8.43491174       0.93446165
C       -3.32240519       6.16508566       1.55406593
C       -2.08874154       6.56343472       2.30768434
H       -1.51091367       0.57463441       3.55605757
H       -2.94506491       1.99382298       4.97741263
H       -2.24384945       3.17322174       0.20097629
H       -7.11585081       4.19975810      -0.66909941
H       -8.43275856       5.93028423      -1.85137430
H       -5.67166822       8.95591514      -0.49657426
H       -1.55600044       5.71270965       2.74175017
H       -2.34781442       7.24191060       3.12752520
H       -1.38498816       7.07615068       1.64302157
C        1.79169731      -1.79169731       1.79169731
C        3.10052259      -2.06750766       1.40246056
C        3.90369737      -2.87828585       2.20631402
C        3.39757565      -3.40956265       3.39712261
Cl       4.44195111      -4.41628230       4.33761892
C        2.08012397      -3.12686570       3.79706360
C        1.27838433      -2.31445406       2.97868880
C        1.49119251      -3.65666183       5.03849459
O        0.69909053      -4.76765322       4.80487278
C        0.08979090      -5.37276778       5.87059486
C       -0.69390832      -6.49515948       5.60407477
C       -1.34396901      -7.15422298       6.64995492
C       -1.20491012      -6.68508199       7.95798954
Br      -2.08752865      -7.57902606       9.37003683
C       -0.42324859      -5.56471648       8.22990498
C        0.22329056      -4.91151181       7.17595517
C        1.05107267      -3.72286603       7.42292675
O        1.18615189      -3.27376133       8.55483917
C        1.70384637      -3.09369361       6.24401679
C        2.53596756      -1.88226788       6.54162516
H        3.50307737      -1.66104434       0.47748394
H        4.92369918      -3.09526905       1.89733229
H        0.25359761      -2.09417089       3.27027897
H       -0.79880970      -6.85959234       4.58572686
H       -1.95370020      -8.02857523       6.43679346
H       -0.31324011      -5.19647220       9.24777701
H        2.95136110      -1.41443610       5.64466307
H        3.37585760      -2.14961589       7.19177673
H        1.93341575      -1.12133877       7.04940589
C       -0.00445707       0.01189536      -1.78238275
H       -0.66409135       0.67374010      -2.43557963
H        0.65740317      -0.63156657      -2.45157240
C       -0.90989263      -0.90692880      -0.91072765
C        0.90977584       0.90977584      -0.90977584
C       -0.00465871       1.77757030       0.00794375
H       -0.66225468       2.44313916      -0.64384735
H        0.64322798       2.43503045       0.67728295
C       -1.78241447       0.00034974      -0.00472694
H       -2.45427497      -0.65498947       0.64260836
H       -2.43311707       0.67328779      -0.65473579
C       -0.91132561       0.90220522       0.91563759
C       -0.01476271      -0.02253852       1.78660255
H       -0.67934791      -0.69751639       2.42135241
H        0.63392994       0.61504881       2.47327442
C        0.01484550      -1.77751727      -0.01636693
H        0.67870853      -2.42144646      -0.68295456
H       -0.62264859      -2.45592969       0.64226336
C        1.78714474       0.01002794       0.00389507
H        2.44202412       0.67113390       0.66197326
H        2.45385902      -0.65136977      -0.64189061
C        0.91606151      -0.90478549       0.90901405
