146
Properties=species:S:1:pos:R:3 pbc="F F F"
C        1.79169731       1.79169731      -1.79169731
C        1.69912892       1.69318467      -3.17817722
C        2.50968399       2.49550706      -3.98310619
C        3.40883278       3.39478728      -3.40064085
Cl       4.39170142       4.34804339      -4.45610751
C        3.49922426       3.50266620      -2.00216282
C        2.68323220       2.68724811      -1.20104688
C        4.42583122       4.42969334      -1.33082437
O        5.57745926       3.79283782      -0.90131946
C        6.53588922       4.53332881      -0.26393550
C        7.68850921       3.86511241       0.14829569
C        8.70120373       4.56604807       0.80704291
C        8.55361443       5.93354888       1.04900190
C        7.40465675       6.60597814       0.63926203
C        6.39620874       5.89536131      -0.01918748
C        5.16721960       6.56901741      -0.46062843
O        4.99569115       7.76453668      -0.25452456
C        4.14931495       5.73669563      -1.15554619
C        2.91043715       6.46394011      -1.58548334
H        1.00474291       0.99577232      -3.64109042
H        2.43807497       2.41298388      -5.06524167
H        2.74833487       2.75273684      -0.11697576
H        7.80198393       2.80146160      -0.04306397
H        9.59757572       4.04044014       1.12634738
H        7.28644386       7.67119551       0.82663028
H        2.16227249       5.80836231      -2.03982546
H        3.16016700       7.23652252      -2.32056071
H        2.43333191       6.94569651      -0.72513200
C        9.59907040       6.65301362       1.72943729
C       10.47463976       7.25556534       2.29930193
Br      11.89036138       8.22984050       3.22072486
C       -1.79169731      -1.79169731      -1.79169731
C       -3.05633625      -2.16871515      -1.34543942
C       -3.85911551      -2.97942760      -2.14975414
C       -3.39685922      -3.40954653      -3.39785516
Cl      -4.43706404      -4.42236776      -4.33642053
C       -2.12467267      -3.02452519      -3.85485542
C       -1.32253188      -2.21310697      -3.03588834
C       -1.58306981      -3.44521012      -5.15806900
O       -0.71566672      -4.51741781      -5.03853200
C       -0.13872478      -5.02201097      -6.17241778
C        0.72296629      -6.10798170      -6.02031051
C        1.34483594      -6.66498870      -7.14005612
C        1.09954540      -6.13081401      -8.40689281
C        0.23967228      -5.04642806      -8.56461709
C       -0.37785947      -4.49550825      -7.43738981
C       -1.28609351      -3.34732785      -7.56344409
O       -1.51552728      -2.84299676      -8.65622835
C       -1.90083699      -2.82791650      -6.31280329
C       -2.81779162      -1.65439113      -6.48767786
H       -3.42442783      -1.84138001      -0.37579782
H       -4.84422081      -3.27560133      -1.79647838
H       -0.33178759      -1.91435247      -3.37190742
H        0.91053784      -6.52325320      -5.03379413
H        2.01566398      -7.51133444      -7.01599802
H        0.04682160      -4.62769732      -9.55013338
H       -3.20391149      -1.26507643      -5.54147234
H       -3.67901135      -1.93465526      -7.10358361
H       -2.29204749      -0.83021636      -6.98189656
C        1.74319224      -6.70669752      -9.55914144
C        2.28224647      -7.18899997     -10.52414968
Br       3.15385158      -7.96884222     -12.08448637
C       -1.79169731       1.79169731       1.79169731
C       -2.01502767       1.43563148       3.11983167
C       -2.82581991       2.23925216       3.92322517
C       -3.40953685       3.39675710       3.39796696
Cl      -4.41302145       4.33850296       4.44432791
C       -3.17992697       3.76345546       2.06067085
C       -2.36700173       2.94542247       1.25910299
C       -3.76628692       4.96897150       1.45109051
O       -4.89303416       4.67671286       0.70186951
C       -5.54972857       5.70374827       0.07967668
C       -6.68657262       5.37853958      -0.65978628
C       -7.39778361       6.38282154      -1.32039627
C       -6.96604041       7.70829893      -1.23617792
C       -5.83145272       8.03877174      -0.49885159
C       -5.12594830       7.02613813       0.15867111
C       -3.92095252       7.33522801       0.94068492
O       -3.50380151       8.48401566       1.02693521
C       -3.23533175       6.19721716       1.60900787
C       -2.00904009       6.55772718       2.39309332
H       -1.56753726       0.53663082       3.53743757
H       -3.00172453       1.95606463       4.95851136
H       -2.18739872       3.21118523       0.21946352
H       -7.02178826       4.34674243      -0.72202120
H       -8.28319617       6.12397098      -1.89549867
H       -5.49225842       9.07037066      -0.43161999
H       -1.50073054       5.68899192       2.82073780
H       -2.27096397       7.22554044       3.22074582
H       -1.28322914       7.06927451       1.75165676
C       -7.70090205       8.74114922      -1.91940455
C       -8.31634868       9.60616134      -2.49160686
Br      -9.31147383      11.00481278      -3.41680959
C        1.79169731      -1.79169731       1.79169731
C        3.12400746      -2.00268532       1.44379803
C        3.92745379      -2.81347884       2.24736461
C        3.39806100      -3.40952732       3.39667259
Cl       4.44487094      -4.41224388       4.33873750
C        2.05646563      -3.19240538       3.75518227
C        1.25493450      -2.37935951       2.93723318
C        1.44242377      -3.79206664       4.95185853
O        0.70367639      -4.92207779       4.64586235
C        0.07884528      -5.59084766       5.66346059
C       -0.64982938      -6.73064112       5.32451419
C       -1.31250781      -7.45403790       6.31867880
C       -1.24116215      -7.03146263       7.64786094
C       -0.51464588      -5.89397979       7.99203896
C        0.14504850      -5.17625034       6.98945869
C        0.91588770      -3.96787909       7.31309866
O        0.99066421      -3.55857931       8.46550887
C        1.58744465      -3.26903004       6.18508208
C        2.35982269      -2.03972756       6.56031035
H        3.54486725      -1.54554649       0.55119191
H        4.96604959      -2.97972098       1.97052996
H        0.21208578      -2.20932270       3.19663899
H       -0.70205033      -7.05869588       4.28986394
H       -1.87916727      -8.34170060       6.04913515
H       -0.45745637      -5.56190861       9.02655685
H        2.79005143      -1.52192234       5.69848650
H        3.18447777      -2.30050489       7.23226757
H        1.70933675      -1.32241129       7.07241237
C       -1.92649069      -7.77888449       8.67025293
C       -2.50045333      -8.40485029       9.52650621
Br      -3.42850239      -9.41698405      10.91099536
C       -0.00445707       0.01189536      -1.78238275
H       -0.66409135       0.67374010      -2.43557963
H        0.65740317      -0.63156657      -2.45157240
C       -0.90989263      -0.90692880      -0.91072765
C        0.90977584       0.90977584      -0.90977584
C       -0.00465871       1.77757030       0.00794375
H       -0.66225468       2.44313916      -0.64384735
H        0.64322798       2.43503045       0.67728295
C       -1.78241447       0.00034974      -0.00472694
H       -2.45427497      -0.65498947       0.64260836
H       -2.43311707       0.67328779      -0.65473579
C       -0.91132561       0.90220522       0.91563759
C       -0.01476271      -0.02253852       1.78660255
H       -0.67934791      -0.69751639       2.42135241
H        0.63392994       0.61504881       2.47327442
C        0.01484550      -1.77751727      -0.01636693
H        0.67870853      -2.42144646      -0.68295456
H       -0.62264859      -2.45592969       0.64226336
C        1.78714474       0.01002794       0.00389507
H        2.44202412       0.67113390       0.66197326
H        2.45385902      -0.65136977      -0.64189061
C        0.91606151      -0.90478549       0.90901405
