125
Properties=species:S:1:pos:R:3 pbc="F F F"
C        0.00000000       0.00000000       0.00000000
C        0.88132096       0.88132096      -0.88132096
C        2.24615684       0.97902239      -0.61580412
C        3.05637984       1.78060097      -1.42644803
C        2.50025843       2.48576811      -2.50460450
C        1.12555336       2.38234100      -2.75874323
C        0.31658664       1.58048501      -1.94758075
C        3.32261885       3.33833608      -3.40632970
O        2.87873029       3.95767788      -4.36092412
O        4.62224182       3.31679982      -3.02731909
C        5.50407155       4.06546639      -3.86185491
C        5.88424660       3.31401064      -5.14011860
O        6.85740927       2.56503926      -5.15728777
N        5.03637686       3.58357400      -6.20027723
C        5.13305494       3.12547466      -7.53609234
C        6.13865493       2.25749422      -7.97309721
C        6.19335790       1.83636474      -9.30686172
C        5.24772957       2.28315442     -10.22494937
C        4.24107510       3.15141918      -9.81130426
C        4.18228690       3.56663770      -8.47636239
Br       2.78762260       4.76872605      -7.99302756
H        2.69038688       0.43449910       0.21383447
H        4.11965001       1.83907738      -1.20608248
H        0.67741771       2.92164789      -3.59115161
H       -0.74784737       1.50556211      -2.15775658
H        6.42425606       4.24480334      -3.29515646
H        5.09286642       5.05527777      -4.09491300
H        4.20449557       4.13781293      -5.99025142
H        6.89948939       1.87778850      -7.29829913
H        6.98122866       1.15629001      -9.62313363
H        5.29711354       1.95645371     -11.26074765
H        3.50892254       3.50142808     -10.53465762
C       -0.88132096      -0.88132096      -0.88132096
C       -0.29308562      -1.73375065      -1.81414708
C       -1.09873342      -2.54701342      -2.61768198
C       -2.49534837      -2.50741504      -2.48786763
C       -3.07491682      -1.64291903      -1.54880174
C       -2.26831179      -0.83040471      -0.74593589
C       -3.39496262      -3.36491982      -3.30740221
O       -4.61296490      -3.36824062      -3.21612677
O       -2.67433470      -4.14230967      -4.14971636
C       -3.44492700      -5.04051829      -4.94594757
C       -3.86507532      -6.29590109      -4.17739942
O       -3.13866200      -7.28591502      -4.15515927
N       -5.09597302      -6.16616413      -3.55809095
C       -5.81770484      -7.14419574      -2.83272137
C       -5.33159684      -8.43506081      -2.60258872
C       -6.08630893      -9.36813702      -1.88213841
C       -7.34155153      -9.02643649      -1.38784533
C       -7.84586679      -7.74790568      -1.61002607
C       -7.08823969      -6.81298226      -2.32406503
Br      -7.85448298      -5.09273445      -2.60215877
H        0.78796229      -1.77718785      -1.92182596
H       -0.62024147      -3.20915928      -3.33540912
H       -4.15637633      -1.59978043      -1.43406044
H       -2.73014655      -0.16693760      -0.01838717
H       -2.81874506      -5.35896677      -5.78650403
H       -4.31522780      -4.54003676      -5.38779264
H       -5.52018081      -5.23714742      -3.57523169
H       -4.35861397      -8.75270736      -2.96425568
H       -5.68564431     -10.36473179      -1.71027619
H       -7.92561909      -9.75617954      -0.83251626
H       -8.82954146      -7.48911202      -1.22635476
C       -0.88132096       0.88132096       0.88132096
C       -1.92180898       0.30845155       1.61072282
C       -2.72597524       1.11335609       2.42409750
C       -2.48889342       2.49383500       2.50790262
C       -1.44187467       3.05848983       1.76627309
C       -0.63850601       2.25263207       0.95351430
C       -3.30549962       3.39010749       3.37167752
O       -3.12361465       4.59297693       3.48074071
O       -4.25987623       2.68394086       4.02254363
C       -5.06631352       3.44703468       4.91804465
C       -4.37288391       3.70794885       6.25754308
O       -4.48571038       2.90986203       7.18416389
N       -3.65443157       4.89074360       6.27505292
C       -2.95875200       5.47571932       7.36015063
C       -2.87135201       4.87699562       8.62089874
C       -2.17443491       5.49852372       9.66362574
C       -1.56119051       6.73157893       9.46306391
C       -1.64032213       7.34682649       8.21664993
C       -2.33093604       6.72201929       7.17233165
Br      -2.41010340       7.63528975       5.50398305
H       -2.11351228      -0.76048179       1.55802103
H       -3.52899255       0.64637451       2.98944281
H       -1.24314563       4.12723631       1.81983527
H        0.17312942       2.70236025       0.38624050
H       -5.97458357       2.86904607       5.12058623
H       -5.39946951       4.38545059       4.45813709
H       -3.56417786       5.38348530       5.38489676
H       -3.32964038       3.91550436       8.83043228
H       -2.11463658       5.01154301      10.63447271
H       -1.02468049       7.21218310      10.27745131
H       -1.16414100       8.31273879       8.06812845
C        0.88132096      -0.88132096       0.88132096
C        0.66288778      -0.92070872       2.25738684
C        1.46494197      -1.73292578       3.06556108
C        2.48739552      -2.50708163       2.49615389
C        2.69957696      -2.45561910       1.11144152
C        1.89690798      -1.64324381       0.30450060
C        3.35673505      -3.39975964       3.31078996
O        4.24829101      -4.09717528       2.85186600
O        3.01042686      -3.33772104       4.61821283
C        3.75415655      -4.19885206       5.47838425
C        3.25719423      -5.64603411       5.43514750
O        2.36584864      -6.02226870       6.19161896
N        3.91278673      -6.41665726       4.49078410
C        3.76161991      -7.80020214       4.23279990
C        2.84625730      -8.60714435       4.91584472
C        2.73769773      -9.97234981       4.62653682
C        3.54833566     -10.55221720       3.65528050
C        4.46949115      -9.76731609       2.96699131
C        4.57288304      -8.40114171       3.25126223
Br       5.86875147      -7.39966638       2.28095835
H       -0.12870363      -0.32906358       2.71069157
H        1.27482741      -1.75393599       4.13604647
H        3.48753178      -3.04998223       0.65270319
H        2.06918897      -1.61525412      -0.76897177
H        3.62696333      -3.83385671       6.50339582
H        4.82935798      -4.14565923       5.26803998
H        4.54796008      -5.92410732       3.86049252
H        2.18926101      -8.20539090       5.68092511
H        2.01454604     -10.57961314       5.16649311
H        3.46308995     -11.61394235       3.43728260
H        5.10388619     -10.22750088       2.21362117
