146
Properties=species:S:1:pos:R:3 pbc="F F F"
C        1.79122498       1.79122498      -1.79122498
C        3.15606087       1.88892641      -1.52570814
C        3.96628386       2.69050499      -2.33635205
C        3.41016245       3.39567214      -3.41450852
C        2.03545738       3.29224503      -3.66864726
C        1.22649066       2.49038903      -2.85748477
C        4.23252288       4.24824011      -4.31623373
O        3.78863432       4.86758190      -5.27082814
O        5.53214584       4.22670385      -3.93722311
C        6.41397558       4.97537042      -4.77175894
C        6.79415062       4.22391467      -6.05002262
O        7.76731329       3.47494328      -6.06719180
N        5.94628089       4.49347802      -7.11018125
C        6.04295897       4.03537868      -8.44599637
C        7.04855896       3.16739824      -8.88300124
C        7.10326193       2.74626877     -10.21676574
C        6.15763359       3.19305844     -11.13485339
C        5.15097913       4.06132321     -10.72120828
C        5.09219092       4.47654173      -9.38626641
Br       3.69752662       5.67863007      -8.90293158
H        3.60029091       1.34440313      -0.69606955
H        5.02955403       2.74898141      -2.11598650
H        1.58732174       3.83155191      -4.50105563
H        0.16205665       2.41546614      -3.06766060
H        7.33416009       5.15470736      -4.20506048
H        6.00277044       5.96518180      -5.00481703
H        5.11439960       5.04771695      -6.90015544
H        7.80939342       2.78769252      -8.20820315
H        7.89113268       2.06619403     -10.53303765
H        6.20701756       2.86635773     -12.17065167
H        4.41882657       4.41133210     -11.44456165
C       -1.79122498      -1.79122498      -1.79122498
C       -1.20228153      -2.66039737      -2.70801652
C       -2.00803728      -3.47363571      -3.51146792
C       -3.40546891      -3.41723438      -3.39763983
C       -3.98568096      -2.53602309      -2.47464561
C       -3.17896907      -1.72355107      -1.67184432
C       -4.30549570      -4.27385357      -4.21764744
O       -5.52438997      -4.26275972      -4.13989467
O       -3.58433689      -5.06844494      -5.04329097
C       -4.35606664      -5.96692313      -5.83811516
C       -4.79858199      -7.20898167      -5.06052425
O       -4.08351431      -8.20661817      -5.01931589
N       -6.03469884      -7.05883108      -4.45641024
C       -6.77520077      -8.02073500      -3.72839826
C       -6.30604239      -9.31422985      -3.47868620
C       -7.07896638     -10.23087578      -2.75645428
C       -8.33569219      -9.86991032      -2.27994292
C       -8.82328028      -8.58845947      -2.52177088
C       -8.04749161      -7.66992731      -3.23758013
Br      -8.79144730      -5.94455403      -3.54308695
H       -0.12066452      -2.71691936      -2.80317971
H       -1.52907348      -4.14894771      -4.21650076
H       -5.06779053      -2.47971659      -2.37242216
H       -3.64137106      -1.04699199      -0.95682034
H       -3.72425671      -6.30157078      -6.66810045
H       -5.21583336      -5.46184358      -6.29509233
H       -6.44833256      -6.12545211      -4.48848732
H       -5.33273321      -9.64656398      -3.82599190
H       -6.69132670     -11.22984456      -2.56919311
H       -8.93391437     -10.58696185      -1.72315074
H       -9.80817665      -8.31460865      -2.15193502
C       -1.79122498       1.79122498       1.79122498
C       -3.17273968       1.60618826       1.79176747
C       -3.98116297       2.40814805       2.60382989
C       -3.40654219       3.39703968       3.41676125
C       -2.01623763       3.57590640       3.40420563
C       -1.20905791       2.77336670       2.59193985
C       -4.22179167       4.26445253       4.31075251
O       -3.75885518       5.12713518       5.04105400
O       -5.53528533       3.95237203       4.20841544
C       -6.39830601       4.69614874       5.06665018
C       -6.40314269       4.16329621       6.50164901
O       -7.19014169       3.28217176       6.83713492
N       -5.46260592       4.77630952       7.31102473
C       -5.24285174       4.58524744       8.69623484
C       -5.96776211       3.66784361       9.46335272
C       -5.71521324       3.51902908      10.83205411
C       -4.73929393       4.29095401      11.45529748
C       -4.00954992       5.21348199      10.71047871
C       -4.25716615       5.35703021       9.34080270
Br      -3.23109971       6.65228673       8.39570183
H       -3.63026508       0.84070360       1.16979491
H       -5.05613752       2.24425953       2.59412489
H       -1.55343775       4.33755559       4.02893594
H       -0.13135733       2.91952749       2.59429857
H       -7.41670818       4.60337893       4.67384082
H       -6.16067678       5.76676080       5.04533169
H       -4.80503394       5.40737659       6.84986146
H       -6.73833131       3.04001849       9.02693928
H       -6.28749193       2.79500687      11.40786557
H       -4.54989930       4.17457640      12.51955127
H       -3.25268538       5.81759291      11.20444202
C        1.79122498      -1.79122498       1.79122498
C        1.21315990      -2.54993034       2.80760518
C        2.01823393      -3.36328859       3.61161838
C        3.40408776      -3.41771087       3.39854449
C        3.97383381      -2.64681022       2.37570564
C        3.16780381      -1.83409961       1.57246105
C        4.30120310      -4.28002817       4.21576544
O        5.50897331      -4.36393200       4.05413905
O        3.58999619      -4.96104925       5.14502737
C        4.35474613      -5.85730501       5.94905379
C        4.65281360      -7.17885263       5.23642168
O        3.87003096      -8.12168822       5.31772919
N        5.84853945      -7.16170676       4.53969396
C        6.46591183      -8.22303199       3.83539021
C        5.89220839      -9.49258451       3.71416554
C        6.54536236     -10.51086880       3.01006527
C        7.78540817     -10.27675363       2.42338363
C        8.37604381      -9.02107899       2.53638782
C        7.71969659      -8.00114711       3.23415536
Br       8.60047774      -6.31828549       3.36032504
H        0.14014228      -2.52012600       2.98049531
H        1.54729530      -3.95169855       4.39552810
H        5.04680766      -2.67734854       2.19577309
H        3.62161522      -1.24391521       0.77965296
H        3.76424522      -6.08698145       6.84270127
H        5.27834198      -5.38670768       6.30771961
H        6.32634246      -6.26126607       4.47466346
H        4.92660578      -9.72789723       4.15078608
H        6.07752149     -11.48910329       2.92373959
H        8.29057323     -11.07228176       1.88117198
H        9.34751443      -8.84634815       2.08085774
C       -0.00445707       0.01189536      -1.78238275
H       -0.66409135       0.67374010      -2.43557963
H        0.65740317      -0.63156657      -2.45157240
C       -0.90989263      -0.90692880      -0.91072765
C        0.90977584       0.90977584      -0.90977584
C       -0.00465871       1.77757030       0.00794375
H       -0.66225468       2.44313916      -0.64384735
H        0.64322798       2.43503045       0.67728295
C       -1.78241447       0.00034974      -0.00472694
H       -2.45427497      -0.65498947       0.64260836
H       -2.43311707       0.67328779      -0.65473579
C       -0.91132561       0.90220522       0.91563759
C       -0.01476271      -0.02253852       1.78660255
H       -0.67934791      -0.69751639       2.42135241
H        0.63392994       0.61504881       2.47327442
C        0.01484550      -1.77751727      -0.01636693
H        0.67870853      -2.42144646      -0.68295456
H       -0.62264859      -2.45592969       0.64226336
C        1.78714474       0.01002794       0.00389507
H        2.44202412       0.67113390       0.66197326
H        2.45385902      -0.65136977      -0.64189061
C        0.91606151      -0.90478549       0.90901405
