154
Properties=species:S:1:pos:R:3 pbc="F F F"
C        1.79122498       1.79122498      -1.79122498
C        3.15606087       1.88892641      -1.52570814
C        3.96628386       2.69050499      -2.33635205
C        3.41016245       3.39567214      -3.41450852
C        2.03545738       3.29224503      -3.66864726
C        1.22649066       2.49038903      -2.85748477
C        4.23252288       4.24824011      -4.31623373
O        3.78863432       4.86758190      -5.27082814
O        5.53214584       4.22670385      -3.93722311
C        6.41397558       4.97537042      -4.77175894
C        6.79415062       4.22391467      -6.05002262
O        7.76731329       3.47494328      -6.06719180
N        5.94628089       4.49347802      -7.11018125
C        6.04295897       4.03537868      -8.44599637
C        7.04855896       3.16739824      -8.88300124
C        7.10326193       2.74626877     -10.21676574
C        6.15763359       3.19305844     -11.13485339
C        5.15097913       4.06132321     -10.72120828
C        5.09219092       4.47654173      -9.38626641
H        3.60029091       1.34440313      -0.69606955
H        5.02955403       2.74898141      -2.11598650
H        1.58732174       3.83155191      -4.50105563
H        0.16205665       2.41546614      -3.06766060
H        7.33416009       5.15470736      -4.20506048
H        6.00277044       5.96518180      -5.00481703
H        5.11439960       5.04771695      -6.90015544
H        7.80939342       2.78769252      -8.20820315
H        7.89113268       2.06619403     -10.53303765
H        6.20701756       2.86635773     -12.17065167
H        4.41882657       4.41133210     -11.44456165
C        4.03718472       5.38587213      -9.02064348
C        3.15361703       6.14743635      -8.71443428
Br       1.72496280       7.37882128      -8.21931990
C       -1.79122498      -1.79122498      -1.79122498
C       -1.50857187      -1.91129892      -3.15082464
C       -2.31084743      -2.72380291      -3.95849056
C       -3.39787864      -3.41738352      -3.40508096
C       -3.67409922      -3.28512714      -2.03712331
C       -2.87114247      -2.47255803      -1.23066396
C       -4.27106289      -4.30721353      -4.21872029
O       -5.21824622      -4.93623097      -3.77256717
O       -3.85900963      -4.32881655      -5.50824661
C       -4.60307716      -5.19559529      -6.36243248
C       -4.18325786      -6.66109570      -6.22373435
O       -3.27660694      -7.11823065      -6.91461078
N       -4.92235201      -7.34982930      -5.27775885
C       -4.85464472      -8.72411842      -4.94557089
C       -3.94956706      -9.60831272      -5.54107866
C       -3.92494584     -10.96064286      -5.18070773
C       -4.81027637     -11.45019906      -4.22507000
C       -5.72251120     -10.58744260      -3.62355683
C       -5.74217255      -9.23413980      -3.97868671
H       -0.66677244      -1.38265238      -3.59133876
H       -2.07033302      -2.80858495      -5.01560397
H       -4.51267335      -3.81638423      -1.59087169
H       -3.09365651      -2.38152682      -0.17000007
H       -4.40784668      -4.88995699      -7.39612427
H       -5.68310447      -5.07963406      -6.21003073
H       -5.56141109      -6.79553349      -4.70532740
H       -3.23658578      -9.27845761      -6.29024570
H       -3.20836089     -11.62902895      -5.65297453
H       -4.78997229     -12.50230765      -3.95174702
H       -6.41535932     -10.97727803      -2.88208296
C       -6.71698793      -8.39344209      -3.33327032
C       -7.53339582      -7.68935775      -2.79273409
Br      -8.85345832      -6.55091293      -1.91873272
C       -1.79122498       1.79122498       1.79122498
C       -3.11333056       2.03448911       1.42287575
C       -3.92431231       2.83609866       2.23272993
C       -3.41176556       3.39542065       3.41315691
C       -2.07930817       3.14652494       3.77051656
C       -1.26954903       2.34479761       2.96001782
C       -4.23882940       4.24114322       4.31702409
O       -3.83356856       4.73580537       5.35767043
O       -5.49583185       4.36960639       3.83063456
C       -6.38445686       5.12323218       4.65341588
C       -6.94065933       4.30557355       5.82185503
O       -7.97036994       3.64943800       5.68964043
N       -6.17326101       4.40757559       6.96910357
C       -6.42891971       3.85044106       8.24497325
C       -7.53893735       3.04416645       8.51585464
C       -7.74967390       2.52007107       9.79655146
C       -6.85756689       2.80089130      10.82708723
C       -5.74860454       3.60540523      10.57950085
C       -5.53419948       4.12336125       9.29743833
H       -3.52406376       1.60369051       0.51300932
H       -4.95453386       3.00923636       1.93075173
H       -1.66538597       3.57156080       4.68298251
H       -0.23861614       2.15608246       3.25048478
H       -7.23110192       5.43215289       4.03067312
H       -5.91510408       6.04864235       5.00902284
H       -5.28243481       4.89939467       6.88044251
H       -8.26420733       2.79282732       7.74825444
H       -8.61698036       1.89051847       9.98286554
H       -7.02804447       2.39485283      11.82112967
H       -5.05869015       3.82583731      11.39019285
C       -4.37820161       4.96022537       9.10527336
C       -3.41005340       5.66109907       8.94433519
Br      -1.84463962       6.79435256       8.68411179
C        1.79122498      -1.79122498       1.79122498
C        1.33248016      -2.19390440       3.04431086
C        2.13577114      -3.00708834       3.85028142
C        3.40027986      -3.41812970       3.40193356
C        3.85185441      -3.00308324       2.14141202
C        3.04770721      -2.19015478       1.33650246
C        4.28543918      -4.29684414       4.21471339
O        5.38623175      -4.68543665       3.85537596
O        3.69386339      -4.61080638       5.39140303
C        4.44324564      -5.49387360       6.22398569
C        4.31823814      -6.95724623       5.79260355
O        3.41418932      -7.66226305       6.23299601
N        5.30293281      -7.34591679       4.90109056
C        5.53316482      -8.63279509       4.35837411
C        4.72145753      -9.73569751       4.64180340
C        4.99390747     -10.98967519       4.08271378
C        6.08659902     -11.16088187       3.23806453
C        6.91000717     -10.07666540       2.94683805
C        6.63335316      -8.82155390       3.50009200
H        0.35294996      -1.88595989       3.40185373
H        1.75738453      -3.31497452       4.82216289
H        4.82958295      -3.31302661       1.77731973
H        3.40801244      -1.87827781       0.35889314
H        4.04257558      -5.41116255       7.24018980
H        5.49552471      -5.19068195       6.28656260
H        5.91155105      -6.60806329       4.54265765
H        3.85609125      -9.65677173       5.29242611
H        4.34546464     -11.83224098       4.31265875
H        6.29638291     -12.13790643       2.80973763
H        7.76536830     -10.21832216       2.29102985
C        7.52818186      -7.74147266       3.17404581
C        8.27760090      -6.83690463       2.90098213
Br       9.48934810      -5.37429462       2.45946126
C       -0.00445707       0.01189536      -1.78238275
H       -0.66409135       0.67374010      -2.43557963
H        0.65740317      -0.63156657      -2.45157240
C       -0.90989263      -0.90692880      -0.91072765
C        0.90977584       0.90977584      -0.90977584
C       -0.00465871       1.77757030       0.00794375
H       -0.66225468       2.44313916      -0.64384735
H        0.64322798       2.43503045       0.67728295
C       -1.78241447       0.00034974      -0.00472694
H       -2.45427497      -0.65498947       0.64260836
H       -2.43311707       0.67328779      -0.65473579
C       -0.91132561       0.90220522       0.91563759
C       -0.01476271      -0.02253852       1.78660255
H       -0.67934791      -0.69751639       2.42135241
H        0.63392994       0.61504881       2.47327442
C        0.01484550      -1.77751727      -0.01636693
H        0.67870853      -2.42144646      -0.68295456
H       -0.62264859      -2.45592969       0.64226336
C        1.78714474       0.01002794       0.00389507
H        2.44202412       0.67113390       0.66197326
H        2.45385902      -0.65136977      -0.64189061
C        0.91606151      -0.90478549       0.90901405
