61
Properties=species:S:1:pos:R:3 pbc="F F F"
C        0.00000000       0.00000000       0.00000000
C        0.88235920       0.88235920      -0.88235920
C        0.57096275       2.23293573      -1.03595789
C        1.38262110       3.02014590      -1.84090549
O        1.08061490       4.34354095      -1.99379877
C        2.49159996       2.48053457      -2.48874584
O        3.23830903       3.32877535      -3.26393782
C        2.79696863       1.12970553      -2.33071329
C        1.99131192       0.32332487      -1.52475465
H       -0.28850294       2.67460053      -0.54055778
H        1.77262017       4.69400949      -2.59044942
H        3.96820050       2.80229572      -3.64218917
H        2.22229424      -0.73091391      -1.39617239
C        3.93827779       0.55059995      -2.99075126
C        4.89412421       0.06559903      -3.54353307
Br       6.43964704      -0.71860643      -4.43733449
C       -0.88235920      -0.88235920      -0.88235920
C       -0.79004903      -2.27001081      -0.77979653
C       -1.59846553      -3.05669799      -1.58850898
O       -1.51070456      -4.41637589      -1.49087416
C       -2.49010578      -2.48032954      -2.49044505
O       -3.25018793      -3.33084839      -3.24998588
C       -2.57715270      -1.09255046      -2.58768429
C       -1.77141515      -0.28613646      -1.78183983
H       -0.10209805      -2.74070605      -0.08385127
H       -2.15765774      -4.75926044      -2.14016090
H       -3.81447932      -2.77631995      -3.82188611
H       -1.83297267       0.79676923      -1.85134928
C       -3.49166059      -0.47507907      -3.51288935
C       -4.25756095       0.04205322      -4.28774859
Br      -5.49595705       0.87821239      -5.54063044
C       -0.88235920       0.88235920       0.88235920
C       -2.21136112       0.52347901       1.10501623
C       -2.99894019       1.33594925       1.90878305
O       -4.30128972       0.98762378       2.12904112
C       -2.48077442       2.49212785       2.48797809
O       -3.32772737       3.23600252       3.26729231
C       -1.15143630       2.84479607       2.26115508
C       -0.34502549       2.03907303       1.45529293
H       -2.63614699      -0.37313571       0.66364410
H       -4.65627232       1.68956410       2.71124266
H       -2.81750684       4.00167879       3.59349975
H        0.69252105       2.30679343       1.27328035
C       -0.59469385       4.03532445       2.84961071
C       -0.12842204       5.03239196       3.34244231
Br       0.62550002       6.64456580       4.13930932
C        0.88235920      -0.88235920       0.88235920
C        2.24940802      -0.62114122       0.96930712
C        3.03641521      -1.43218120       1.77507609
O        4.37596154      -1.17937560       1.86261748
C        2.48049832      -2.49148953       2.48889251
O        3.32976845      -3.24133423       3.25991953
C        1.11324757      -2.74683383       2.39730604
C        0.30682956      -1.94106335       1.59149854
H        2.70397745       0.19901400       0.42169192
H        4.72310642      -1.86125622       2.47271644
H        2.79079820      -3.93317637       3.68871081
H       -0.76014103      -2.13326158       1.51443218
C        0.51711326      -3.83626949       3.12624625
C        0.01785078      -4.74867186       3.73673368
Br      -0.78941443      -6.22394932       4.72384021
