53
Properties=species:S:1:pos:R:3 pbc="F F F"
C        0.00000000       0.00000000       0.00000000
C        0.88552558       0.88552558      -0.88552558
C        0.57460863       2.23551112      -1.00127553
C        1.38224707       3.03374372      -1.80665286
C        2.46127090       2.45691852      -2.46050959
O        3.23106063       3.27029188      -3.24175416
C        2.69609019       1.09426355      -2.28475241
N        1.92826361       0.29791055      -1.50946022
H       -0.27442655       2.66376265      -0.48031653
H        1.17229707       4.09315551      -1.92284955
H        3.94280357       2.72942970      -3.63221953
C        3.81048015       0.47425084      -2.95357170
C        4.74378175      -0.04500981      -3.51370785
Br       6.25285150      -0.88461036      -4.41940063
C       -0.88552558      -0.88552558      -0.88552558
C       -0.78802385      -2.26629447      -0.75707697
C       -1.59443184      -3.06437829      -1.56383352
C       -2.46066138      -2.45689661      -2.46114102
O       -3.23601486      -3.27112036      -3.23597145
C       -2.49024424      -1.06460035      -2.52026156
N       -1.71877159      -0.26769599      -1.74916680
H       -0.10311797      -2.71821209      -0.04832257
H       -1.54757785      -4.14732681      -1.49339747
H       -3.78673535      -2.70712500      -3.81059245
C       -3.38177785      -0.41243834      -3.44408650
C       -4.12843725       0.13374735      -4.21778989
Br      -5.33572235       1.01688341      -5.46880283
C       -0.88552558       0.88552558       0.88552558
C       -2.20417931       0.50339165       1.10382432
C       -3.00264951       1.31157015       1.90842398
C       -2.45713899       2.46177201       2.45978801
O       -3.26979050       3.22992099       3.24339518
C       -1.12454035       2.76490915       2.18565665
N       -0.32867215       1.99818453       1.40877770
H       -2.60831855      -0.40045062       0.66178471
H       -4.03813975       1.04724660       2.10291578
H       -2.75275271       3.99581662       3.55588348
C       -0.53723728       3.95364792       2.74741750
C       -0.04537095       4.94921663       3.21789220
Br       0.74993529       6.55896704       3.97861002
C        0.88552558      -0.88552558       0.88552558
C        2.25071870      -0.62761737       0.93305921
C        3.04890701      -1.43510143       1.73863521
C        2.45697487      -2.46146731       2.46025683
O        3.27081705      -3.23289119       3.23939843
C        1.07963819      -2.64511090       2.35035706
N        0.28298692      -1.87624465       1.57640282
H        2.69065343       0.18069396       0.35969317
H        4.11995811      -1.26572229       1.80262173
H        2.71862121      -3.90512866       3.68070294
C        0.44373886      -3.70412525       3.09043857
C       -0.08882682      -4.59104978       3.71025684
Br      -0.94994049      -6.02513171       4.71245055
