138
Properties=species:S:1:pos:R:3 pbc="F F F"
C        1.79164623       1.79164623      -1.79164623
C        2.73338353       2.63469726      -1.20430417
C        3.53920231       3.44199596      -2.01131922
C        3.40952327       3.40251241      -3.40682625
C        2.45289165       2.55606021      -3.98335337
C        1.64593604       1.74929080      -3.17704872
C        4.24713795       4.25474601      -4.26492662
O        3.51646186       5.26752434      -4.86391714
C        4.16455790       6.14231602      -5.69277017
C        3.39875389       7.14808671      -6.28266958
C        4.00395447       8.07142774      -7.13836792
C        5.37267319       7.98286217      -7.39808761
Br       6.18730980       9.23435187      -8.55680393
C        6.14243432       6.98056015      -6.81132470
C        5.52682592       6.06043107      -5.95655636
C        6.30445611       4.98792881      -5.32110975
O        7.50936640       4.88398471      -5.51743834
C        5.56716364       4.04575381      -4.43720480
C        6.39375536       2.94230697      -3.84717343
H        2.84614266       2.67354342      -0.12397398
H        4.26601002       4.10319084      -1.54403970
H        2.33093029       2.52051249      -5.06395753
H        0.90940919       1.09647453      -3.63813614
H        2.33315805       7.21433620      -6.07729270
H        3.40228755       8.85333638      -7.59570731
H        7.20902250       6.90874546      -7.01186597
H        5.79783662       2.19158773      -3.32125281
H        7.11900774       3.35149466      -3.13603772
H        6.94196156       2.41235164      -4.63388821
C       -1.79164623      -1.79164623      -1.79164623
C       -2.96804094      -2.33058887      -1.27375515
C       -3.77395825      -3.13807684      -2.08048239
C       -3.40856214      -3.40221311      -3.40808669
C       -2.21890563      -2.86029118      -3.91310841
C       -1.41187913      -2.05364624      -3.10675020
C       -4.24570728      -4.25805987      -4.26304344
O       -3.64436286      -5.47780327      -4.52573721
C       -4.30796642      -6.38108773      -5.31058995
C       -3.67281600      -7.59808491      -5.55860927
C       -4.30030771      -8.56077396      -6.35266846
C       -5.56052103      -8.29970050      -6.89340144
Br      -6.40574832      -9.60524285      -7.96747443
C       -6.19966692      -7.08602389      -6.64862837
C       -5.56261951      -6.12835475      -5.85283909
C       -6.20334589      -4.83581121      -5.57433757
O       -7.31288939      -4.57440806      -6.02349200
C       -5.44924984      -3.87125420      -4.72961821
C       -6.12345717      -2.54982381      -4.50995477
H       -3.26451658      -2.13204235      -0.24710114
H       -4.68631789      -3.56139052      -1.66553215
H       -1.91416468      -3.06360852      -4.93762712
H       -0.49285314      -1.63879295      -3.51237377
H       -2.69168064      -7.79809282      -5.13501348
H       -3.80064275      -9.50769194      -6.54299654
H       -7.18144578      -6.87950604      -7.06868211
H       -5.48475401      -1.81855085      -4.00737230
H       -7.02421965      -2.68108354      -3.90123692
H       -6.41512378      -2.10522606      -5.46785157
C       -1.79164623       1.79164623       1.79164623
C       -1.45502611       1.98746058       3.12989826
C       -2.26255746       2.79342647       3.93653356
C       -3.40379602       3.41033491       3.40473099
C       -3.73463603       3.19812201       2.05954718
C       -2.92829788       2.39143909       1.25253859
C       -4.26529090       4.25380563       4.24771405
O       -5.48818286       3.65598741       4.50373308
C       -6.39661235       4.32535310       5.27767864
C       -7.61957296       3.69688139       5.51305583
C       -8.58757175       4.33031972       6.29585867
C       -8.32532157       5.58921517       6.83908624
Br      -9.63822112       6.44268210       7.89756238
C       -7.10541083       6.22137919       6.60752916
C       -6.14302890       5.57905371       5.82173074
C       -4.84590924       6.21465510       5.55293033
O       -4.57589948       7.31455970       6.02033027
C       -3.88678896       5.46664789       4.69668541
C       -2.59519740       6.17427301       4.41376534
H       -0.57189457       1.51724002       3.55452548
H       -1.99688862       2.93416498       4.98218695
H       -4.62252629       3.66006370       1.63281033
H       -3.19627264       2.23714159       0.21060562
H       -7.81982058       2.71601449       5.08895188
H       -9.53927987       3.83601944       6.47603193
H       -6.89814362       7.20231880       7.02917151
H       -1.97688046       5.66207414       3.67172256
H       -2.00613869       6.26831990       5.33208152
H       -2.78738012       7.17909744       4.02172386
C        1.79164623      -1.79164623       1.79164623
C        1.51300538      -1.90698699       3.15239259
C        2.32056628      -2.71299894       3.95895227
C        3.40353316      -3.41027530       3.40505347
C        3.67683896      -3.27861546       2.03685080
C        2.87048383      -2.47196507       1.22982667
C        4.26496140      -4.25466404       4.24718515
O        5.52596309      -3.70686432       4.41507593
C        6.43902253      -4.38315379       5.17746777
C        7.70051767      -3.80575250       5.32324001
C        8.67514532      -4.44873804       6.08986678
C        8.38094076      -5.66595407       6.70672814
Br       9.70293816      -6.53253659       7.74299086
C        7.12250336      -6.24700972       6.56480610
C        6.15375097      -5.59557853       5.79448385
C        4.81627456      -6.17799136       5.61922875
O        4.51808375      -7.23979212       6.15291358
C        3.85227690      -5.42462124       4.77322412
C        2.51620783      -6.07983059       4.58719734
H        0.67527807      -1.37393838       3.59444361
H        2.10078623      -2.79075617       5.02169815
H        4.51960063      -3.80374074       1.59205895
H        3.09339044      -2.38061928       0.17001013
H        7.92562996      -2.85719743       4.84195956
H        9.65693925      -3.99433484       6.20005715
H        6.89026234      -7.19540522       7.04396638
H        1.88672817      -5.57323405       3.85071494
H        1.96968495      -6.10097169       5.53588347
H        2.64094451      -7.11037534       4.23688156
C       -0.00445707       0.01189536      -1.78238275
H       -0.66409135       0.67374010      -2.43557963
H        0.65740317      -0.63156657      -2.45157240
C       -0.90989263      -0.90692880      -0.91072765
C        0.90977584       0.90977584      -0.90977584
C       -0.00465871       1.77757030       0.00794375
H       -0.66225468       2.44313916      -0.64384735
H        0.64322798       2.43503045       0.67728295
C       -1.78241447       0.00034974      -0.00472694
H       -2.45427497      -0.65498947       0.64260836
H       -2.43311707       0.67328779      -0.65473579
C       -0.91132561       0.90220522       0.91563759
C       -0.01476271      -0.02253852       1.78660255
H       -0.67934791      -0.69751639       2.42135241
H        0.63392994       0.61504881       2.47327442
C        0.01484550      -1.77751727      -0.01636693
H        0.67870853      -2.42144646      -0.68295456
H       -0.62264859      -2.45592969       0.64226336
C        1.78714474       0.01002794       0.00389507
H        2.44202412       0.67113390       0.66197326
H        2.45385902      -0.65136977      -0.64189061
C        0.91606151      -0.90478549       0.90901405
