146
Properties=species:S:1:pos:R:3 pbc="F F F"
C        1.79164623       1.79164623      -1.79164623
C        2.73338353       2.63469726      -1.20430417
C        3.53920231       3.44199596      -2.01131922
C        3.40952327       3.40251241      -3.40682625
C        2.45289165       2.55606021      -3.98335337
C        1.64593604       1.74929080      -3.17704872
C        4.24713795       4.25474601      -4.26492662
O        3.51646186       5.26752434      -4.86391714
C        4.16455790       6.14231602      -5.69277017
C        3.39875389       7.14808671      -6.28266958
C        4.00395447       8.07142774      -7.13836792
C        5.37267319       7.98286217      -7.39808761
C        6.14243432       6.98056015      -6.81132470
C        5.52682592       6.06043107      -5.95655636
C        6.30445611       4.98792881      -5.32110975
O        7.50936640       4.88398471      -5.51743834
C        5.56716364       4.04575381      -4.43720480
C        6.39375536       2.94230697      -3.84717343
H        2.84614266       2.67354342      -0.12397398
H        4.26601002       4.10319084      -1.54403970
H        2.33093029       2.52051249      -5.06395753
H        0.90940919       1.09647453      -3.63813614
H        2.33315805       7.21433620      -6.07729270
H        3.40228755       8.85333638      -7.59570731
H        7.20902250       6.90874546      -7.01186597
H        5.79783662       2.19158773      -3.32125281
H        7.11900774       3.35149466      -3.13603772
H        6.94196156       2.41235164      -4.63388821
C        5.99331545       8.93632705      -8.28087180
C        6.51310333       9.73485389      -9.02020355
Br       7.35355638      11.02600424     -10.21564047
C       -1.79164623      -1.79164623      -1.79164623
C       -2.96812842      -2.33044862      -1.27380792
C       -3.77404579      -3.13793667      -2.08053503
C       -3.40856165      -3.40221307      -3.40808721
C       -2.21881849      -2.86043142      -3.91305531
C       -1.41179197      -2.05378654      -3.10669707
C       -4.24570687      -4.25806130      -4.26304241
O       -3.64444167      -5.47787621      -4.52558545
C       -4.30805504      -6.38117071      -5.31041834
C       -3.67298483      -7.59824098      -5.55828436
C       -4.30049051      -8.56094382      -6.35231580
C       -5.56063745      -8.29981081      -6.89317471
C       -6.19970313      -7.08606104      -6.64855500
C       -5.56264231      -6.12837877      -5.85279226
C       -6.20328475      -4.83575915      -5.57445077
O       -7.31276943      -4.57430134      -6.02371868
C       -5.44917878      -3.87119464      -4.72974883
C       -6.12329491      -2.54969027      -4.51025058
H       -3.26467259      -2.13179259      -0.24719489
H       -4.68647481      -3.56114047      -1.66562528
H       -1.91400957      -3.06385879      -4.93753196
H       -0.49269807      -1.63904289      -3.51227890
H       -2.69190110      -7.79829504      -5.13459080
H       -3.80088819      -9.50791891      -6.54252414
H       -7.18143011      -6.87949671      -7.06870711
H       -5.48457281      -1.81842858      -4.00767577
H       -7.02411863      -2.68082506      -3.90159643
H       -6.41484543      -2.10514767      -5.46820831
C       -6.20460024      -9.29447089      -7.71144316
C       -6.74391908     -10.12749870      -8.39674299
Br      -7.61595202     -11.47443422      -9.50481485
C       -1.79164623       1.79164623       1.79164623
C       -1.45285013       1.99065769       3.12887714
C       -2.26038019       2.79662187       3.93551542
C       -3.40380673       3.41033667       3.40471852
C       -3.73680464       3.19492450       2.06057608
C       -2.93046711       2.38824031       1.25356815
C       -4.26530247       4.25377210       4.24773601
O       -5.48656006       3.65411375       4.50722953
C       -6.39478931       4.32322345       5.28163133
C       -7.61609635       3.69287217       5.52054166
C       -8.58380917       4.32595799       6.30398297
C       -8.32292887       5.58638639       6.84430772
C       -7.10467146       6.22043144       6.60921628
C       -6.14256421       5.57844208       5.82280706
C       -4.84717572       6.21600055       5.55031840
O       -4.57837675       7.31730863       6.01510407
C       -3.88826255       5.46818906       4.69367064
C       -2.59856664       6.17773349       4.40693562
H       -0.56801416       1.52293348       3.55271243
H       -1.99298772       2.93986356       4.98038927
H       -4.62638751       3.65435676       1.63465604
H       -3.20013251       2.23144238       0.21244497
H       -7.81527826       2.71081704       5.09869164
H       -9.53422623       3.83018932       6.48691570
H       -6.89847481       7.20256796       7.02859116
H       -1.98068825       5.66529791       3.66469099
H       -2.00793905       6.27465702       5.32394405
H       -2.79341528       7.18143907       4.01334706
C       -9.32288067       6.23624311       7.65139052
C      -10.16034030       6.78049811       8.32732236
Br     -11.51444169       7.66051242       9.42024698
C        1.79164623      -1.79164623       1.79164623
C        1.51162466      -1.90880667       3.15195363
C        2.31918495      -2.71481751       3.95851502
C        3.40353896      -3.41027698       3.40504599
C        3.67821564      -3.27679511       2.03729447
C        2.87186092      -2.47014398       1.23027067
C        4.26496968      -4.25464432       4.24719659
O        5.52517541      -3.70563318       4.41709475
C        6.43813908      -4.38175565       5.17974936
C        7.69882992      -3.80311787       5.32756239
C        8.67332003      -4.44587288       6.09455722
C        8.37978316      -5.66409858       6.70974123
C        7.12214984      -6.24639160       6.56577774
C        6.15352969      -5.59518033       5.79510333
C        4.81689593      -6.17888118       5.61771756
O        4.51929249      -7.24160387       6.14989308
C        3.85300126      -5.42564180       4.77147919
C        2.51786761      -6.08212557       4.58324258
H        0.67281630      -1.37717859       3.59366518
H        2.09831287      -2.79399833       5.02092935
H        4.52205259      -3.80049126       1.59285647
H        3.09584122      -2.37737441       0.17080422
H        7.92342254      -2.85377995       4.84758445
H        9.65448605      -3.99050373       6.20634146
H        6.89043067      -7.19557550       7.04362777
H        1.88864306      -5.57541007       3.84662404
H        1.97031675      -6.10492605       5.53129732
H        2.64413684      -7.11214176       4.23192282
C        9.38682151      -6.32407528       7.49961750
C       10.23021613      -6.87680577       8.16113887
Br      11.59391390      -7.77052423       9.23076297
C       -0.00445707       0.01189536      -1.78238275
H       -0.66409135       0.67374010      -2.43557963
H        0.65740317      -0.63156657      -2.45157240
C       -0.90989263      -0.90692880      -0.91072765
C        0.90977584       0.90977584      -0.90977584
C       -0.00465871       1.77757030       0.00794375
H       -0.66225468       2.44313916      -0.64384735
H        0.64322798       2.43503045       0.67728295
C       -1.78241447       0.00034974      -0.00472694
H       -2.45427497      -0.65498947       0.64260836
H       -2.43311707       0.67328779      -0.65473579
C       -0.91132561       0.90220522       0.91563759
C       -0.01476271      -0.02253852       1.78660255
H       -0.67934791      -0.69751639       2.42135241
H        0.63392994       0.61504881       2.47327442
C        0.01484550      -1.77751727      -0.01636693
H        0.67870853      -2.42144646      -0.68295456
H       -0.62264859      -2.45592969       0.64226336
C        1.78714474       0.01002794       0.00389507
H        2.44202412       0.67113390       0.66197326
H        2.45385902      -0.65136977      -0.64189061
C        0.91606151      -0.90478549       0.90901405
