117
Properties=species:S:1:pos:R:3 pbc="F F F"
C        0.00000000       0.00000000       0.00000000
C        0.88174221       0.88174221      -0.88174221
C        1.82347951       1.72479323      -0.29440015
C        2.62929828       2.53209193      -1.10141520
C        2.49961924       2.49260839      -2.49692222
C        1.54298762       1.64615618      -3.07344934
C        0.73603202       0.83938678      -2.26714470
C        3.33723392       3.34484199      -3.35502260
O        2.60655784       4.35762031      -3.95401312
C        3.25465388       5.23241200      -4.78286615
C        2.48884986       6.23818269      -5.37276556
C        3.09405045       7.16152372      -6.22846390
C        4.46276917       7.07295815      -6.48818359
Br       5.27740577       8.32444785      -7.64689991
C        5.23253030       6.07065613      -5.90142068
C        4.61692190       5.15052704      -5.04665234
C        5.39455209       4.07802479      -4.41120572
O        6.59946238       3.97408068      -4.60753431
C        4.65725961       3.13584979      -3.52730078
C        5.48385133       2.03240294      -2.93726941
H        1.93623864       1.76363940       0.78593005
H        3.35610599       3.19328682      -0.63413567
H        1.42102626       1.61060847      -4.15405351
H       -0.00049483       0.18657050      -2.72823212
H        1.42325403       6.30443217      -5.16738868
H        2.49238352       7.94343236      -6.68580328
H        6.29911847       5.99884144      -6.10196195
H        4.88793260       1.28168371      -2.41134878
H        6.20910371       2.44159064      -2.22613369
H        6.03205754       1.50244761      -3.72398419
C       -0.88174221      -0.88174221      -0.88174221
C       -2.26894557      -0.77595921      -0.79776810
C       -3.07531412      -1.58356858      -1.60392272
C       -2.49602678      -2.49303868      -2.50008440
C       -1.09993210      -2.59449613      -2.56816492
C       -0.29287919      -1.78808629      -1.76159802
C       -3.33618845      -3.35389242      -3.34701765
O       -3.27967097      -4.68166389      -2.95685641
C       -4.01280932      -5.60244963      -3.65467307
C       -3.93051037      -6.93123374      -3.23805399
C       -4.65611337      -7.91708986      -3.91083483
C       -5.46052583      -7.56678150      -4.99660357
Br      -6.44045591      -8.90418387      -5.90411375
C       -5.54674209      -6.24109086      -5.41677416
C       -4.81568155      -5.26151610      -4.73690362
C       -4.87858516      -3.85343360      -5.15176384
O       -5.58083693      -3.50637677      -6.09386368
C       -4.05886069      -2.88041777      -4.38113172
C       -4.12073469      -1.46370895      -4.86908004
H       -2.73126484      -0.07351157      -0.10917157
H       -4.15732924      -1.50027643      -1.52592281
H       -0.63326352      -3.30246386      -3.24996086
H        0.78843881      -1.87644655      -1.82630005
H       -3.30357310      -7.20005686      -2.39144492
H       -4.58818118      -8.95140877      -3.58202922
H       -6.17241106      -5.96498832      -6.26252247
H       -3.40239817      -0.80545188      -4.37311504
H       -5.12141217      -1.05031411      -4.70510177
H       -3.89915807      -1.41827080      -5.94106046
C       -0.88174221       0.88174221       0.88174221
C       -0.53534364       1.09203554       2.21529371
C       -1.34286912       1.89799377       3.02194253
C       -2.49394065       2.50043851       2.49477070
C       -2.83447696       2.27373743       1.15437876
C       -2.02814158       1.46704873       0.34737319
C       -3.35543837       3.34375010       3.33791004
O       -4.57085680       2.73768617       3.60964830
C       -5.47836971       3.40590391       4.38565840
C       -6.69376846       2.76900925       4.63702039
C       -7.66045869       3.40086713       5.42271225
C       -7.40447229       4.66663155       5.95280706
Br      -8.71557577       5.51792723       7.01525053
C       -6.19212236       5.30722513       5.70525961
C       -5.23099729       4.66640653       4.91669746
C       -3.94179406       5.31077792       4.63121062
O       -3.67732211       6.41697271       5.08678256
C       -2.98361970       4.56364675       3.77314372
C       -1.70068985       5.27986662       3.47296722
H        0.35544747       0.63312053       2.63627493
H       -1.06945371       2.05006922       4.06400555
H       -3.72997279       2.72431499       0.73140046
H       -2.30371323       1.30142774      -0.69083318
H       -6.88914326       1.78281815       4.22311346
H       -8.60626265       2.89998652       5.61537000
H       -5.98975029       6.29352793       6.11664364
H       -1.08435609       4.76658732       2.73002168
H       -1.10459826       5.38692931       4.38530048
H       -1.90493779       6.27956614       3.07398541
C        0.88174221      -0.88174221       0.88174221
C        0.29888745      -1.67671042       1.86707501
C        1.10604200      -2.48251436       2.67424905
C        2.49623312      -2.49999234       2.49292440
C        3.06940586      -1.68948331       1.50370398
C        2.26311401      -0.88257686       0.69687263
C        3.35562900      -3.33834424       3.34312528
O        4.11971543      -2.58207019       4.21640565
C        4.96996051      -3.22763963       5.07233188
C        5.72757500      -2.43629280       5.93593031
C        6.61332474      -3.03762409       6.83308923
C        6.73502432      -4.42798550       6.86090109
Br       7.93500453      -5.23732021       8.07642880
C        5.98050434      -5.22325093       6.00085183
C        5.09696528      -4.61140876       5.10572724
C        4.28634041      -5.41599410       4.18144808
O        4.35882606      -6.63906438       4.18318693
C        3.38294242      -4.68269296       3.25477479
C        2.60962003      -5.54326453       2.30063912
H       -0.77762656      -1.67466506       2.01690949
H        0.64343436      -3.09364860       3.44644552
H        4.14737814      -1.68213703       1.35617307
H        2.72134107      -0.26041017      -0.06744345
H        5.62940640      -1.35377334       5.91189514
H        7.20164520      -2.41603106       7.50394290
H        6.07322423      -6.30677472       6.01992290
H        2.06725133      -4.96879140       1.54492235
H        1.87992774      -6.15129151       2.84560879
H        3.28414578      -6.21544848       1.75889508
