169
Properties=species:S:1:pos:R:3 pbc="F F F"
C        0.00000000       0.00000000       0.00000000
O        5.69107918      -0.88196417      -4.55447043
C        5.00663715       0.21608683      -5.17877497
H        4.17726770      -0.22780297      -5.74048489
C        4.45392762       1.15998540      -4.10166021
O        3.55482432       0.40106057      -3.27884461
C        2.66723085       1.09688518      -2.50278381
C        2.50759745       2.48430100      -2.47294623
C        1.52330577       3.06415388      -1.66594521
C        0.70798961       2.26317162      -0.86921585
C        0.88216679       0.88216679      -0.88216679
C        1.85299632       0.29841240      -1.69558677
C        5.98594272       0.92984700      -6.13630741
N        5.48652198       2.17753203      -6.75819182
C        4.30054816       1.92345061      -7.58555756
C        6.52562310       2.80623144      -7.60178684
C        7.75130590       3.27113943      -6.84168055
C        7.64317643       4.21451493      -5.80863984
C        8.78004539       4.64701348      -5.12261000
C       10.03117874       4.14096375      -5.46812676
C       10.15665544       3.20610301      -6.49219966
C        9.01941890       2.77376479      -7.17771202
H        5.09574988      -1.19702932      -3.84755113
H        3.93263666       1.98419054      -4.59530047
H        5.26268972       1.54002026      -3.46685092
H        3.12225030       3.14992962      -3.06814827
H        1.39430367       4.14330480      -1.66176432
H       -0.05504653       2.72373518      -0.24409000
H        1.98049278      -0.78067170      -1.70878406
H        6.30425210       0.21476789      -6.90778259
H        6.88925433       1.14475895      -5.55067604
H        4.49926486       1.19317933      -8.37796954
H        3.95109171       2.85183023      -8.05189742
H        3.46289480       1.56166748      -6.98174920
H        6.11089447       3.70061320      -8.08772849
H        6.82041952       2.12568158      -8.41207358
H        6.66646186       4.60906529      -5.53373665
H        8.67898755       5.37633416      -4.32160988
H       11.13078760       2.80750441      -6.76373113
H        9.13056013       2.04108568      -7.97455598
C       11.20441949       4.58756172      -4.76267910
C       12.18700862       4.96158751      -4.17186668
Br      13.77577213       5.56635559      -3.21657297
O        0.45420020      -3.24927109      -6.56851456
C       -0.35886221      -4.19163144      -5.85100530
H        0.33380767      -4.78237506      -5.24138223
C       -1.33764515      -3.43979122      -4.93813685
O       -0.56080684      -2.64294356      -4.03097911
C       -1.18099244      -2.18712080      -2.89878660
C       -2.49098927      -2.46941881      -2.50443662
C       -2.98478806      -1.97635025      -1.29226655
C       -2.18015231      -1.18188932      -0.47833545
C       -0.88216679      -0.88216679      -0.88216679
C       -0.38076562      -1.38289886      -2.08333101
C       -1.08582563      -5.09556879      -6.87070271
N       -2.08145018      -6.03498671      -6.30580895
C       -1.45388833      -6.98095388      -5.37471412
C       -2.75789254      -6.80155643      -7.37419242
C       -3.58548928      -5.95690042      -8.32173618
C       -4.64736120      -5.17235696      -7.84661303
C       -5.41301312      -4.40748413      -8.72917162
C       -5.12295579      -4.42566653     -10.09164693
C       -4.07436006      -5.20037753     -10.58022053
C       -3.30887484      -5.96484636      -9.69717450
H        0.76047170      -2.60374494      -5.90299846
H       -1.94216302      -4.17254265      -4.39742200
H       -1.97687733      -2.76897538      -5.52370819
H       -3.15807447      -3.07575698      -3.10649673
H       -3.99951727      -2.21508710      -0.98476843
H       -2.57352932      -0.80237470       0.46312536
H        0.63573034      -1.15312296      -2.39121251
H       -0.33127756      -5.63917917      -7.45634586
H       -1.57691323      -4.42238493      -7.58539115
H       -0.65666768      -7.56183817      -5.85190789
H       -2.19864151      -7.67969354      -4.97648431
H       -1.03553833      -6.46620160      -4.50457156
H       -3.45319084      -7.52325732      -6.92278800
H       -2.02526503      -7.39362802      -7.93928162
H       -4.87418554      -5.15307407      -6.78200419
H       -6.23076556      -3.80163064      -8.34453538
H       -3.84367338      -5.21601685     -11.64233291
H       -2.49065121      -6.56430200     -10.09124858
C       -5.91292891      -3.63881644     -11.00291495
C       -6.57453140      -2.97982949     -11.76610192
Br      -7.64428666      -1.91430333     -13.00011070
O       -6.63042432       3.12894153      -0.39578041
C       -6.54165174       2.84927162       1.01057560
H       -6.78290336       1.78623125       1.12081500
C       -5.10937463       3.10696867       1.49922992
O       -4.23447754       2.24741830       0.75283367
C       -2.98267509       2.02407277       1.26015198
C       -2.48489848       2.50739368       2.47255253
C       -1.19787675       2.15980891       2.89571919
C       -0.39420351       1.34541053       2.10076304
C       -0.88216679       0.88216679       0.88216679
C       -2.16985309       1.21473212       0.46241028
C       -7.57942832       3.71806976       1.75459904
N       -7.52661704       3.66218979       3.23343900
C       -7.78176587       2.30254045       3.72525001
C       -8.51851417       4.57742052       3.83770670
C       -8.27688693       6.04407068       3.54316826
C       -7.07780302       6.66663771       3.92189047
C       -6.86946187       8.02206825       3.65813874
C       -7.86023424       8.76270295       3.01733207
C       -9.05685896       8.16122588       2.63687328
C       -9.26455209       6.80570344       2.90064018
H       -5.85900360       2.68925457      -0.80198648
H       -5.06069947       2.88337791       2.56805029
H       -4.81543619       4.14559274       1.30853196
H       -3.06824181       3.15011034       3.12197605
H       -0.82474378       2.52611550       3.84851351
H        0.60631601       1.08068408       2.43841059
H       -2.54996792       0.84456148      -0.48592427
H       -8.58247448       3.45040394       1.39392417
H       -7.41675012       4.75016038       1.41777882
H       -8.75440011       1.92047271       3.39554091
H       -7.75528155       2.27874512       4.82079268
H       -7.00492485       1.60644466       3.39494197
H       -8.48983145       4.47750765       4.93189707
H       -9.53419537       4.29370885       3.53027046
H       -6.30009412       6.08972802       4.41944165
H       -5.93276581       8.48921375       3.95495202
H       -9.83173949       8.73513710       2.13514654
H      -10.20312502       6.34685580       2.59622097
C       -7.64730219      10.16087971       2.74647841
C       -7.46897160      11.33185274       2.51963847
Br      -7.18062613      13.22521709       2.15285747
O       -0.41584724      -6.60987088       3.16956180
C        0.98935197      -6.53086753       2.88127946
H        1.09203344      -6.77887826       1.81903792
C        1.48774060      -5.09998600       3.12784663
O        0.74142903      -4.22574549       2.26755499
C        1.25465155      -2.97821382       2.03403447
C        2.47268337      -2.48469722       2.50746410
C        2.90123975      -1.20217573       2.14998939
C        2.10622112      -0.39861485       1.33554110
C        0.88216679      -0.88216679       0.88216679
C        0.45692954      -2.16545918       1.22460676
C        1.73240550      -7.56791502       3.75177662
N        3.21117647      -7.52400197       3.68706740
C        3.69361693      -7.78983163       2.32610776
C        3.81501261      -8.51409356       4.60453521
C        3.53038057      -8.26231201       6.07143330
C        3.91961201      -7.06187517       6.68484402
C        3.66492892      -6.84419824       8.04054171
C        3.02272647      -7.82695262       8.79059016
C        2.63189496      -9.02479871       8.19826444
C        2.88659643      -9.24182827       6.84247101
H       -0.82014212      -5.83865537       2.72775844
H        2.55550945      -5.05879842       2.89781980
H        1.30476541      -4.79896446       4.16583102
H        3.12244893      -3.06808142       3.14979785
H        3.85827703      -0.83246794       2.50862782
H        2.44809008       0.59838750       1.06307607
H       -0.49571078      -2.54219674       0.86211917
H        1.36440859      -8.57037943       3.49201457
H        1.40251838      -7.39733977       4.78483116
H        3.35609677      -8.76272417       1.95159279
H        4.78913769      -7.76983735       2.29584432
H        3.36376213      -7.01511416       1.62743520
H        4.90875245      -8.49233190       4.49815181
H        3.50008668      -9.52959377       4.32849422
H        4.41828481      -6.29040273       6.10057625
H        3.96984047      -5.90656152       8.50052960
H        2.12904567      -9.79343595       8.77954151
H        2.57411649     -10.18124987       6.39083543
C        2.76121599      -7.60439735      10.18904696
C        2.54220096      -7.41800731      11.36025453
Br       2.18807219      -7.11663039      13.25399812
