190
Properties=species:S:1:pos:R:3 pbc="F F F"
O        6.60098321       0.02793986      -5.46437445
C        5.91654118       1.12599086      -6.08867899
H        5.08717173       0.68210105      -6.65038891
C        5.36383164       2.06988943      -5.01156423
O        4.46472835       1.31096459      -4.18874864
C        3.57713487       2.00678921      -3.41268783
C        3.41750148       3.39420503      -3.38285025
C        2.43320979       3.97405790      -2.57584923
C        1.61789363       3.17307564      -1.77911988
C        1.79207082       1.79207082      -1.79207082
C        2.76290034       1.20831643      -2.60549079
C        6.89584674       1.83975103      -7.04621143
N        6.39642601       3.08743605      -7.66809585
C        5.21045218       2.83335463      -8.49546158
C        7.43552712       3.71613547      -8.51169086
C        8.66120992       4.18104346      -7.75158457
C        8.55308045       5.12441896      -6.71854386
C        9.68994941       5.55691750      -6.03251403
C       10.94108277       5.05086777      -6.37803078
C       11.06655947       4.11600704      -7.40210368
C        9.92932292       3.68366882      -8.08761604
H        6.00565390      -0.28712529      -4.75745515
H        4.84254069       2.89409457      -5.50520449
H        6.17259374       2.44992428      -4.37675494
H        4.03215433       4.05983365      -3.97805229
H        2.30420770       5.05320883      -2.57166834
H        0.85485750       3.63363921      -1.15399403
H        2.89039680       0.12923232      -2.61868808
H        7.21415613       1.12467192      -7.81768661
H        7.79915835       2.05466297      -6.46058006
H        5.40916888       2.10308335      -9.28787356
H        4.86099574       3.76173425      -8.96180144
H        4.37279883       2.47157151      -7.89165322
H        7.02079850       4.61051722      -8.99763251
H        7.73032355       3.03558560      -9.32197760
H        7.57636588       5.51896932      -6.44364067
H        9.58889157       6.28623818      -5.23151390
H       12.04069162       3.71740843      -7.67363515
H       10.04046415       2.95098971      -8.88446001
C       12.11432352       5.49746574      -5.67258312
C       13.09691264       5.87149154      -5.08177070
Br      14.68567616       6.47625961      -4.12647699
O       -1.35505664      -8.00939135      -2.72884953
C       -2.74021731      -7.62964565      -2.76134807
H       -3.07495565      -7.62659852      -1.71810752
C       -2.87547937      -6.21876729      -3.35103864
O       -2.12190977      -5.32534725      -2.51718455
C       -2.39310229      -3.98711122      -2.61639840
C       -3.37910595      -3.40147752      -3.41397329
C       -3.58289670      -2.01808836      -3.38213187
C       -2.78943699      -1.21075553      -2.56989664
C       -1.79207082      -1.79207082      -1.79207082
C       -1.59423557      -3.17245862      -1.81001337
C       -3.52320555      -8.68241978      -3.57618388
N       -4.94789027      -8.37084071      -3.83322693
C       -5.70340807      -8.25630821      -2.57955213
C       -5.57891562      -9.41241023      -4.67202760
C       -4.99835661      -9.52858687      -6.06689446
C       -5.01374193      -8.43562400      -6.94667733
C       -4.48841352      -8.55599517      -8.23497225
C       -3.94800384      -9.77066387      -8.65131361
C       -3.92688722     -10.86585528      -7.79192769
C       -4.45211341     -10.74483791      -6.50365647
H       -0.87990453      -7.24416911      -2.35191013
H       -3.93389053      -5.94602843      -3.36192079
H       -2.45650914      -6.17958195      -4.36318187
H       -4.01616408      -3.98580982      -4.06806636
H       -4.36373845      -1.57250442      -3.99284200
H       -2.95530963      -0.13497744      -2.55220366
H       -0.81977155      -3.62323441      -1.19531124
H       -3.42537176      -9.65578330      -3.07535960
H       -2.99123768      -8.79310211      -4.53006160
H       -5.64850465      -9.17176184      -1.97985931
H       -6.75844670      -8.04126916      -2.78481558
H       -5.34355238      -7.42070035      -1.97177083
H       -6.64502991      -9.17993346      -4.80398486
H       -5.53770493     -10.38570798      -4.16447385
H       -5.43193036      -7.48399543      -6.62305008
H       -4.50459627      -7.69811676      -8.90393062
H       -3.50460000     -11.81484780      -8.11228741
H       -4.42758103     -11.60750278      -5.84083006
C       -3.40768503      -9.89653514      -9.98015221
C       -2.95516803     -10.00195232     -11.09305453
Br      -2.22348632     -10.17240298     -12.89252347
O       -7.98381865       1.26484084       2.84463803
C       -7.34721668       1.74385987       4.04013448
H       -6.99647943       0.85201142       4.57117084
C       -6.14865465       2.62813487       3.66849578
O       -5.24205727       1.82807804       2.89430626
C       -3.95276521       2.27193588       2.77191082
C       -3.40946072       3.40726923       3.37782681
C       -2.05672445       3.71919774       3.20719473
C       -1.24520040       2.91095214       2.41393661
C       -1.79207082       1.79207082       1.79207082
C       -3.13703706       1.46927482       1.97039568
C       -8.39259179       2.50074569       4.88847172
N       -7.87182519       3.18745535       6.09267737
C       -7.27257828       2.23298985       7.03370027
C       -8.94463344       3.92868516       6.79003485
C       -9.54672787       5.06235470       5.98475538
C       -8.74965211       6.12157531       5.52481586
C       -9.31578528       7.16881327       4.79478240
C      -10.68227561       7.16400235       4.52370336
C      -11.48808095       6.12198490       4.97460434
C      -10.92136721       5.07487629       5.70436429
H       -7.26188552       0.94240477       2.27169348
H       -5.67490195       2.97740617       4.58953162
H       -6.46885923       3.47702615       3.05338759
H       -4.00144368       4.07131746       3.99727912
H       -1.63801219       4.59483780       3.69623487
H       -0.19360731       3.16214503       2.28673839
H       -3.55824480       0.59050018       1.48957223
H       -9.19534242       1.80102102       5.16015122
H       -8.86177745       3.23351162       4.21911232
H       -7.98553370       1.46371001       7.35088209
H       -6.90568027       2.75229801       7.92655316
H       -6.39886297       1.73869807       6.59846252
H       -8.53946782       4.38558493       7.70389548
H       -9.73375819       3.23774599       7.11638258
H       -7.68084021       6.12636253       5.73177312
H       -8.68353822       7.98098191       4.44212352
H      -12.55439236       6.11357715       4.76376570
H      -11.56148992       4.26525613       6.04916782
C      -11.26751600       8.24425329       3.77260309
C      -11.75765481       9.14896345       3.14355662
Br     -12.55016783      10.61180326       2.12644168
O        0.47420866      -7.49872490       4.12036395
C        1.87813569      -7.42960185       3.82347349
H        1.97317218      -7.68436957       2.76211994
C        2.38625271      -6.00024742       4.05878516
O        1.64001825      -5.12667286       3.19775047
C        2.15910140      -3.88353542       2.95397509
C        3.38272072      -3.39439895       3.41743709
C        3.81662000      -2.11649805       3.04999889
C        3.02153752      -1.31305025       2.23550139
C        1.79207082      -1.79207082       1.79207082
C        1.36139831      -3.07084924       2.14446001
C        2.62022678      -8.46589961       4.69568282
N        4.09882472      -8.43099746       4.62213572
C        4.57175984      -8.70753468       3.25997388
C        4.70224994      -9.41925546       5.54184806
C        4.42765352      -9.15730585       7.00887857
C        4.82742123      -7.95562162       7.61300042
C        4.58192554      -7.72859580       8.96885960
C        3.93841951      -8.70321364       9.72834817
C        3.53718993      -9.90217549       9.14530477
C        3.78270720     -10.12855461       7.78934598
H        0.07182462      -6.72773955       3.67641960
H        3.45288144      -5.96663063       3.82232767
H        2.21109131      -5.69214270       5.09603895
H        4.03282821      -3.97782854       4.05938352
H        4.77786476      -1.75030870       3.40091140
H        3.36759131      -0.31965924       1.95524018
H        0.40448707      -3.44411613       1.78971400
H        2.24490681      -9.46768932       4.44391853
H        2.29737245      -8.28740763       5.72962131
H        4.22641725      -9.68059755       2.89311100
H        5.66718284      -8.69411294       3.22323565
H        4.24233395      -7.93497313       2.55871648
H        5.79545791      -9.40449784       5.42899247
H        4.37982845     -10.43448487       5.27357344
H        5.32714398      -7.19047827       7.02135362
H        4.89495501      -6.79010103       9.42158761
H        3.03328983     -10.66447670       9.73396867
H        3.46214800     -11.06874153       7.34502433
C        3.68637463      -8.47102159      11.12697616
C        3.47528704      -8.27656075      12.29832709
Br       3.13397626      -7.96213403      14.19230248
C       -0.00445707       0.01189536      -1.78238275
H       -0.66409135       0.67374010      -2.43557963
H        0.65740317      -0.63156657      -2.45157240
C       -0.90989263      -0.90692880      -0.91072765
C        0.90977584       0.90977584      -0.90977584
C       -0.00465871       1.77757030       0.00794375
H       -0.66225468       2.44313916      -0.64384735
H        0.64322798       2.43503045       0.67728295
C       -1.78241447       0.00034974      -0.00472694
H       -2.45427497      -0.65498947       0.64260836
H       -2.43311707       0.67328779      -0.65473579
C       -0.91132561       0.90220522       0.91563759
C       -0.01476271      -0.02253852       1.78660255
H       -0.67934791      -0.69751639       2.42135241
H        0.63392994       0.61504881       2.47327442
C        0.01484550      -1.77751727      -0.01636693
H        0.67870853      -2.42144646      -0.68295456
H       -0.62264859      -2.45592969       0.64226336
C        1.78714474       0.01002794       0.00389507
H        2.44202412       0.67113390       0.66197326
H        2.45385902      -0.65136977      -0.64189061
C        0.91606151      -0.90478549       0.90901405
