133
Properties=species:S:1:pos:R:3 pbc="F F F"
C        0.00000000       0.00000000       0.00000000
O        5.92951554       1.94998423      -4.04239697
C        5.94723520       2.96543933      -4.72588658
O        4.83117211       3.54273374      -5.27123885
C        3.60830026       2.98369716      -4.78094889
C        3.38417028       3.35198125      -3.31677535
O        3.92684603       4.32504789      -2.79354159
C        2.49421061       2.48623970      -2.49886849
C        1.44784920       1.75096656      -3.06687827
C        0.64044772       0.94864824      -2.25433237
C        0.88172037       0.88172037      -0.88172037
C        1.91898020       1.61441178      -0.30867851
C        2.72199328       2.42152093      -1.11719686
C        7.17811686       3.76971157      -5.11443259
O        8.32492169       3.27094146      -4.43252532
C        9.43878318       4.06644253      -4.46664522
C        9.78055447       4.85705806      -5.56883897
C       10.95981576       5.60842008      -5.55781992
C       11.80243696       5.56660919      -4.44897551
Cl      13.25509322       6.48789727      -4.44810837
C       11.48145037       4.77893671      -3.34785712
C       10.30441809       4.02581025      -3.36190380
Br       9.90961833       2.96899076      -1.83267291
H        3.60534754       1.89871409      -4.93319453
H        2.79391646       3.41904656      -5.36882293
H        1.23091799       1.79684134      -4.13007323
H       -0.17437078       0.38175642      -2.69835604
H        2.11331334       1.56531629       0.75987516
H        3.53498909       2.99055075      -0.66802070
H        6.99675651       4.81470319      -4.83698090
H        7.30651411       3.65813443      -6.19678338
H        9.16212726       4.88884045      -6.46013020
H       11.21969114       6.21492473      -6.42220942
H       12.14484980       4.74924335      -2.48796979
O       -2.34361854      -3.38587294      -6.19240526
C       -3.23139316      -4.22865659      -6.17851136
O       -3.51200807      -5.02971967      -5.10341696
C       -2.82443626      -4.63743513      -3.91107491
C       -3.36301028      -3.31290127      -3.37701533
O       -4.48462579      -2.89566271      -3.66514702
C       -2.48575836      -2.49732101      -2.49623944
C       -1.49896984      -3.07623769      -1.69048649
C       -0.69728565      -2.26473854      -0.88140414
C       -0.88172037      -0.88172037      -0.88172037
C       -1.86513511      -0.29882028      -1.67811511
C       -2.67130292      -1.10791622      -2.48149193
C       -4.17418121      -4.56445697      -7.32362284
O       -3.99595032      -3.63995551      -8.39248264
C       -4.96271155      -3.64714356      -9.36201582
C       -5.62652565      -4.80829852      -9.77162733
C       -6.56880067      -4.75389083     -10.80336426
C       -6.84503084      -3.54134871     -11.43164210
Cl      -7.99969776      -3.48592418     -12.70547692
C       -6.18761741      -2.37863561     -11.04199119
C       -5.24356779      -2.43533792     -10.01322643
Br      -4.37570716      -0.81949667      -9.51607816
H       -1.74590993      -4.59275936      -4.09858687
H       -3.01432918      -5.40917720      -3.15827957
H       -1.34495954      -4.15095253      -1.66192049
H        0.06587829      -2.71821939      -0.25340059
H       -2.01279649       0.77827829      -1.68423628
H       -3.43699684      -0.65007978      -3.10648392
H       -5.19984480      -4.50799329      -6.94060252
H       -3.92565690      -5.57779907      -7.65797595
H       -5.41319816      -5.77375744      -9.32414230
H       -7.07478254      -5.66333875     -11.11870401
H       -6.40625732      -1.43731947     -11.53848615
O       -1.67559827       5.15161458       5.09468390
C       -2.82207174       5.54077933       5.27571004
O       -3.79340445       5.54183888       4.30990136
C       -3.41509114       4.83132856       3.12652660
C       -3.33292274       3.33013825       3.38986589
O       -3.92543192       2.79391033       4.32609327
C       -2.48841564       2.50037954       2.49052362
C       -2.24840957       2.85813052       1.15915394
C       -1.44400137       2.04480411       0.35462284
C       -0.88172037       0.88172037       0.88172037
C       -1.11991008       0.51703768       2.20512274
C       -1.92845253       1.32411423       3.00814431
C       -3.39018749       6.10214290       6.56993063
O       -2.43931480       5.96720933       7.62186434
C       -2.91285572       6.16829412       8.89072109
C       -3.91129562       7.09926019       9.19589569
C       -4.31421776       7.29067315      10.52116484
C       -3.71654382       6.55738864      11.54408919
Cl      -4.21307497       6.80583307      13.17219082
C       -2.71618328       5.63341839      11.25864253
C       -2.31209102       5.44591939       9.93412173
Br      -0.94459123       4.17032201       9.59636875
H       -2.47137629       5.22887984       2.73700002
H       -4.19813187       5.00267090       2.38098318
H       -2.68565131       3.75074855       0.72143270
H       -1.26285467       2.32359657      -0.68070956
H       -0.68338413      -0.38701820       2.62238854
H       -2.11032805       1.03950397       4.04372852
H       -4.30084764       5.53994464       6.80764833
H       -3.60696587       7.16144813       6.39301792
H       -4.37597719       7.70812860       8.42699212
H       -5.08679505       8.02137459      10.74865565
H       -2.25281988       5.06733677      12.06190629
O        3.72344039      -6.07801754       2.12043881
C        4.48565944      -6.07453225       3.07836942
O        5.16121491      -4.96669713       3.51723266
C        4.72144519      -3.75381220       2.89768891
C        3.31453054      -3.38103431       3.35736203
O        2.83395633      -3.80198809       4.40949110
C        2.49817539      -2.49521006       2.48593336
C        3.08168924      -1.55927849       1.62472629
C        2.26959931      -0.75105878       0.82277023
C        0.88172037      -0.88172037       0.88172037
C        0.29369072      -1.80838840       1.73999138
C        1.10251446      -2.61154505       2.54665157
C        4.84412738      -7.26808407       3.95004958
O        4.03706775      -8.38907399       3.60224674
C        4.05164177      -9.43754382       4.48268534
C        5.18629004      -9.80812301       5.21203844
C        5.14732231     -10.92120531       6.05752813
C        3.97743993     -11.66936639       6.17121532
Cl       3.94170797     -13.04188570       7.20750519
C        2.84250934     -11.31930183       5.44643304
C        2.88416732     -10.20882156       4.59914326
Br       1.30715046      -9.77046259       3.63366895
H        4.78267078      -3.84683833       1.80774704
H        5.40427989      -2.96015181       3.21735425
H        4.15851994      -1.42867534       1.57063728
H        2.72615763      -0.02193983       0.15764423
H       -0.78699737      -1.91634017       1.78941167
H        0.64115458      -3.33826022       3.21414574
H        4.66932300      -6.98458297       4.99453465
H        5.90038052      -7.49427067       3.76678073
H        6.12197218      -9.26538469       5.12374103
H        6.03666453     -11.20476435       6.61539641
H        1.93475054     -11.90917563       5.53813677
