162
Properties=species:S:1:pos:R:3 pbc="F F F"
O        6.83941957       2.85988825      -4.95230099
C        6.85713923       3.87534335      -5.63579061
O        5.74107613       4.45263776      -6.18114287
C        4.51820428       3.89360118      -5.69085291
C        4.29407431       4.26188527      -4.22667938
O        4.83675005       5.23495192      -3.70344562
C        3.40411464       3.39614373      -3.40877252
C        2.35775322       2.66087059      -3.97678229
C        1.55035174       1.85855226      -3.16423639
C        1.79162440       1.79162440      -1.79162440
C        2.82888423       2.52431581      -1.21858254
C        3.63189730       3.33142496      -2.02710089
C        8.08802089       4.67961560      -6.02433662
O        9.23482571       4.18084548      -5.34242935
C       10.34868720       4.97634655      -5.37654925
C       10.69045849       5.76696208      -6.47874299
C       11.86971979       6.51832410      -6.46772394
C       12.71234098       6.47651321      -5.35887953
Cl      14.16499725       7.39780129      -5.35801239
C       12.39135439       5.68884074      -4.25776114
C       11.21432211       4.93571427      -4.27180782
H        4.51525156       2.80861811      -5.84309855
H        3.70382048       4.32895059      -6.27872696
H        2.14082202       2.70674536      -5.03997725
H        0.73553324       1.29166045      -3.60826007
H        3.02321737       2.47522032      -0.15002886
H        4.44489312       3.90045478      -1.57792472
H        7.90666054       5.72460722      -5.74688493
H        8.21641813       4.56803845      -7.10668740
H       10.07203128       5.79874447      -7.37003423
H       12.12959516       7.12482876      -7.33211345
H       13.05475382       5.65914737      -3.39787381
C       10.91515854       4.13489846      -3.11301742
C       10.66460906       3.46421522      -2.14253046
Br      10.25949173       2.37977714      -0.57333513
O       -5.79978360      -2.60012355      -6.25170166
C       -6.02615638      -3.75569105      -6.58642576
O       -5.12075309      -4.77766135      -6.47644233
C       -3.95852686      -4.42458218      -5.71954933
C       -4.29973736      -4.23949203      -4.24340957
O       -5.29767913      -4.74629812      -3.73117034
C       -3.39975457      -3.39890785      -3.41036847
C       -2.03869788      -3.25491926      -3.70178896
C       -1.23466374      -2.44999197      -2.88848468
C       -1.79162440      -1.79162440      -1.79162440
C       -3.14501884      -1.93383743      -1.49292629
C       -3.94814022      -2.74260083      -2.29968210
C       -7.31836083      -4.28297995      -7.19063232
O       -8.31826596      -3.26871195      -7.17112264
C       -9.59967263      -3.68190301      -7.42000735
C       -9.91088800      -4.71496395      -8.31031162
C      -11.24489514      -5.05405753      -8.55681516
C      -12.27003121      -4.35815321      -7.91954930
Cl     -13.90821814      -4.77704940      -8.23554339
C      -11.97797600      -3.32249211      -7.03748817
C      -10.64442782      -2.98242141      -6.79499498
H       -3.49249446      -3.52910956      -6.14536420
H       -3.25207787      -5.25665882      -5.80276133
H       -1.57850433      -3.76773290      -4.54130741
H       -0.17653652      -2.34352940      -3.11538784
H       -3.58550342      -1.42220163      -0.64076150
H       -5.00688534      -2.84943270      -2.06695458
H       -7.64030247      -5.14424953      -6.59360068
H       -7.09583420      -4.57136510      -8.22394468
H       -9.13802022      -5.25683323      -8.84595653
H      -11.47651329      -5.85451503      -9.25550905
H      -12.78278620      -2.78254679      -6.54644202
C      -10.38204393      -1.90684506      -5.87418543
C      -10.16229743      -1.00604988      -5.10300743
Br      -9.80698591       0.45045975      -3.85607783
O       -2.59505790       5.84474010       6.21181082
C       -3.72548052       6.29426764       6.34852502
O       -4.63189851       6.41436369       5.32859457
C       -4.22237641       5.75305504       4.12722691
C       -4.24659934       4.23666168       4.29937794
O       -4.92809915       3.68423813       5.16281030
C       -3.39774070       3.41011273       3.40117745
C       -3.05301003       3.83059438       2.11180169
C       -2.24912515       3.01730906       1.30670618
C       -1.79162440       1.79162440       1.79162440
C       -2.13445374       1.36459670       3.07273213
C       -2.94273380       2.17200759       3.87568176
C       -4.33998945       6.81241503       7.63956862
O       -3.46738173       6.55511878       8.73560003
C       -4.00752309       6.70987173       9.98418818
C       -4.96607023       7.68237933      10.28771401
C       -5.44000932       7.81966459      11.59609392
C       -4.95305917       6.99038199      12.60429255
Cl      -5.53603768       7.17237732      14.21239594
C       -3.99343160       6.02354721      12.32097746
C       -3.51814113       5.89004242      11.01366066
H       -3.23388705       6.11252418       3.82055700
H       -4.94502599       6.01774535       3.34872669
H       -3.40771307       4.77359488       1.70623668
H       -1.98648404       3.34522937       0.30374035
H       -1.77984930       0.41146518       3.45715206
H       -3.20646339       1.83832268       4.87848654
H       -5.29573900       6.29586936       7.78654432
H       -4.48165663       7.89197562       7.51751174
H       -5.34403045       8.36416554       9.53261399
H       -6.18055498       8.58298614      11.82299625
H       -3.61641282       5.38242303      13.11293917
C       -2.52718069       4.87671242      10.75918131
C       -1.69725133       4.02804855      10.54605485
Br      -0.35532574       2.65583085      10.20144740
O        4.85973757      -6.88647392       2.90539731
C        5.56633026      -6.89692638       3.90501655
O        6.15060576      -5.78102754       4.44322347
C        5.67553067      -4.56013121       3.86699649
C        4.22595885      -4.29322900       4.26345111
O        3.71342248      -4.80095006       5.26077505
C        3.40858255      -3.40440731       3.39604102
C        3.98303524      -2.38886237       2.62350850
C        3.17061165      -1.58122312       1.82130562
C        1.79162440      -1.79162440       1.79162440
C        1.21229075      -2.79801365       2.56147816
C        2.02090245      -3.60106208       3.36845861
C        5.94529938      -8.11780110       4.72887262
O        5.22568298      -9.25940965       4.27300792
C        5.25289994     -10.35519421       5.09348885
C        6.36523773     -10.70453529       5.86639054
C        6.34479956     -11.86563694       6.64533133
C        5.21621159     -12.68268741       6.64883473
Cl       5.20363443     -14.11337080       7.60380569
C        4.10454024     -12.35407746       5.87933857
C        4.12791170     -11.19531536       5.09861714
H        5.80224714      -4.58568851       2.77903257
H        6.29203569      -3.75000982       4.26945252
H        5.05171837      -2.19599677       2.63982949
H        3.61978511      -0.79031158       1.22535708
H        0.13869526      -2.96824138       2.54152990
H        1.56667145      -4.38998164       3.96661953
H        5.69673882      -7.90600482       5.77540904
H        7.02149117      -8.27414530       4.59550751
H        7.27100330     -10.10667199       5.86313469
H        7.21701368     -12.13176418       7.23775951
H        3.22917746     -12.99757918       5.88501837
C        2.95778904     -10.88746239       4.31782300
C        1.97781131     -10.62963553       3.66390790
Br       0.39327020     -10.21275130       2.60658249
C       -0.00445707       0.01189536      -1.78238275
H       -0.66409135       0.67374010      -2.43557963
H        0.65740317      -0.63156657      -2.45157240
C       -0.90989263      -0.90692880      -0.91072765
C        0.90977584       0.90977584      -0.90977584
C       -0.00465871       1.77757030       0.00794375
H       -0.66225468       2.44313916      -0.64384735
H        0.64322798       2.43503045       0.67728295
C       -1.78241447       0.00034974      -0.00472694
H       -2.45427497      -0.65498947       0.64260836
H       -2.43311707       0.67328779      -0.65473579
C       -0.91132561       0.90220522       0.91563759
C       -0.01476271      -0.02253852       1.78660255
H       -0.67934791      -0.69751639       2.42135241
H        0.63392994       0.61504881       2.47327442
C        0.01484550      -1.77751727      -0.01636693
H        0.67870853      -2.42144646      -0.68295456
H       -0.62264859      -2.45592969       0.64226336
C        1.78714474       0.01002794       0.00389507
H        2.44202412       0.67113390       0.66197326
H        2.45385902      -0.65136977      -0.64189061
C        0.91606151      -0.90478549       0.90901405
