154
Properties=species:S:1:pos:R:3 pbc="F F F"
O        6.83941957       2.85988825      -4.95230099
C        6.85713923       3.87534335      -5.63579061
O        5.74107613       4.45263776      -6.18114287
C        4.51820428       3.89360118      -5.69085291
C        4.29407431       4.26188527      -4.22667938
O        4.83675005       5.23495192      -3.70344562
C        3.40411464       3.39614373      -3.40877252
C        2.35775322       2.66087059      -3.97678229
C        1.55035174       1.85855226      -3.16423639
C        1.79162440       1.79162440      -1.79162440
C        2.82888423       2.52431581      -1.21858254
C        3.63189730       3.33142496      -2.02710089
C        8.08802089       4.67961560      -6.02433662
O        9.23482571       4.18084548      -5.34242935
C       10.34868720       4.97634655      -5.37654925
C       10.69045849       5.76696208      -6.47874299
C       11.86971979       6.51832410      -6.46772394
C       12.71234098       6.47651321      -5.35887953
Cl      14.16499725       7.39780129      -5.35801239
C       12.39135439       5.68884074      -4.25776114
C       11.21432211       4.93571427      -4.27180782
Br      10.81952235       3.87889478      -2.74257693
H        4.51525156       2.80861811      -5.84309855
H        3.70382048       4.32895059      -6.27872696
H        2.14082202       2.70674536      -5.03997725
H        0.73553324       1.29166045      -3.60826007
H        3.02321737       2.47522032      -0.15002886
H        4.44489312       3.90045478      -1.57792472
H        7.90666054       5.72460722      -5.74688493
H        8.21641813       4.56803845      -7.10668740
H       10.07203128       5.79874447      -7.37003423
H       12.12959516       7.12482876      -7.33211345
H       13.05475382       5.65914737      -3.39787381
O       -6.36289174      -2.62053123      -5.66818584
C       -6.46849265      -3.73404576      -6.16573478
O       -5.41442136      -4.58273941      -6.37769600
C       -4.20252378      -4.14614929      -5.75398531
C       -4.29876920      -4.24965266      -4.23421709
O       -5.10126078      -4.99776273      -3.67612408
C       -3.40177639      -3.39733087      -3.40992362
C       -2.15210461      -2.97049222      -3.87280927
C       -1.34655080      -2.16698744      -3.05960216
C       -1.79162440      -1.79162440      -1.79162440
C       -3.03281496      -2.21646658      -1.32250103
C       -3.83573421      -3.02452582      -2.13016312
C       -7.75325490      -4.38624296      -6.65247524
O       -8.87494207      -3.58142874      -6.30172974
C      -10.10299907      -4.17433580      -6.42424813
C      -10.40871510      -5.10010218      -7.42734629
C      -11.69866467      -5.63070848      -7.52639468
C      -12.68663588      -5.23309805      -6.62799979
Cl     -14.27271536      -5.88510405      -6.76299152
C      -12.40141288      -4.30697983      -5.62956357
C      -11.11277259      -3.77490066      -5.53417095
Br     -10.77325988      -2.51620306      -4.15153113
H       -3.96040274      -3.12808459      -6.07848089
H       -3.40501130      -4.81657892      -6.08990781
H       -1.77714233      -3.26040165      -4.85000064
H       -0.37425291      -1.84042508      -3.42077577
H       -3.38617923      -1.92609201      -0.33619530
H       -4.80753779      -3.35243576      -1.76329907
H       -7.82987492      -5.37115369      -6.17712408
H       -7.67780683      -4.47112767      -7.74220948
H       -9.67112160      -5.40828294      -8.16140543
H      -11.92786466      -6.34499569      -8.31367702
H      -13.17773376      -3.99964540      -4.93439585
O       -2.59744500       6.23171912       5.82244470
C       -3.75230464       6.57223697       6.04373158
O       -4.76926793       6.47424907       5.13133977
C       -4.41364396       5.72238925       3.96662516
C       -4.23984365       4.24303584       4.29975947
O       -4.75603345       3.72779048       5.29132366
C       -3.39884206       3.41036277       3.39982604
C       -3.24455929       3.70931351       2.04153329
C       -2.43968952       2.89600403       1.23744685
C       -1.79162440       1.79162440       1.79162440
C       -1.94412900       1.48543276       3.14222081
C       -2.75286964       2.29222363       3.94532988
C       -4.28388945       7.17169727       7.33638638
O       -3.27602083       7.13965912       8.34242060
C       -3.69564821       7.38316634       9.62276846
C       -4.72509025       8.27795233       9.93312099
C       -5.07096599       8.51828994      11.26651189
C       -4.38543691       7.87034956      12.29194726
Cl      -4.81257925       8.17878675      13.92944493
C       -3.35346323       6.98367135      12.00082170
C       -3.00658840       6.74733499      10.66792082
Br      -1.59260300       5.52549976      10.32289131
H       -3.51265757       6.14549002       3.50882064
H       -5.24076435       5.81517070       3.25556297
H       -3.74927570       4.55485298       1.58341594
H       -2.32522159       3.12879560       0.18143657
H       -1.44054582       0.62737700       3.58054372
H       -2.86774683       2.05360639       5.00191939
H       -5.15083676       6.57806645       7.64924947
H       -4.56446732       8.20814900       7.11852768
H       -5.25879451       8.82175023       9.16026524
H       -5.86850513       9.22051517      11.49751707
H       -2.82160561       6.48428442      12.80588498
O        4.60996556      -6.99728613       3.04435712
C        5.37785728      -6.99267422       3.99774169
O        6.06251949      -5.88629629       4.42604099
C        5.62624018      -4.67449781       3.80192038
C        4.22429655      -4.29068360       4.26765880
O        3.74749554      -4.70257334       5.32507871
C        3.40802432      -3.40518633       3.39582023
C        3.99192806      -2.47782190       2.52565614
C        3.17987540      -1.66954233       1.72372267
C        1.79162440      -1.79162440       1.79162440
C        1.20324219      -2.70971615       2.65882423
C        2.01208651      -3.51288574       3.46545090
C        5.73444629      -8.18317240       4.87435442
O        4.91874680      -9.30138846       4.53796530
C        4.93236082     -10.34471945       5.42450273
C        6.06910926     -10.71771382       6.14934048
C        6.02859545     -11.82554358       7.00162880
C        4.85501883     -12.56607330       7.12664159
Cl       4.81734285     -13.93222575       8.17124233
C        3.71789428     -12.21356422       6.40649778
C        3.76107223     -11.10836296       5.55240902
Br       2.18097033     -10.66636026       4.59366347
H        5.68045407      -4.77430691       2.71220725
H        6.31562326      -3.88302925       4.11284552
H        5.06917016      -2.35392568       2.46444879
H        3.63677165      -0.94707513       1.05160698
H        0.12224865      -2.81096643       2.71525147
H        1.55041706      -4.23290683       4.13994872
H        5.56751061      -7.89248956       5.91815252
H        6.78824311      -8.41669276       4.68620811
H        7.00743375     -10.18106168       6.05231455
H        6.91954265     -12.11107723       7.55591748
H        2.80723457     -12.79749566       6.50704478
C       -0.00445707       0.01189536      -1.78238275
H       -0.66409135       0.67374010      -2.43557963
H        0.65740317      -0.63156657      -2.45157240
C       -0.90989263      -0.90692880      -0.91072765
C        0.90977584       0.90977584      -0.90977584
C       -0.00465871       1.77757030       0.00794375
H       -0.66225468       2.44313916      -0.64384735
H        0.64322798       2.43503045       0.67728295
C       -1.78241447       0.00034974      -0.00472694
H       -2.45427497      -0.65498947       0.64260836
H       -2.43311707       0.67328779      -0.65473579
C       -0.91132561       0.90220522       0.91563759
C       -0.01476271      -0.02253852       1.78660255
H       -0.67934791      -0.69751639       2.42135241
H        0.63392994       0.61504881       2.47327442
C        0.01484550      -1.77751727      -0.01636693
H        0.67870853      -2.42144646      -0.68295456
H       -0.62264859      -2.45592969       0.64226336
C        1.78714474       0.01002794       0.00389507
H        2.44202412       0.67113390       0.66197326
H        2.45385902      -0.65136977      -0.64189061
C        0.91606151      -0.90478549       0.90901405
