166
Properties=species:S:1:pos:R:3 pbc="F F F"
C        1.79104667       1.79104667      -1.79104667
C        1.26935487       2.95058246      -2.35694638
C        2.08352049       3.75813519      -3.15732203
C        3.42154135       3.41035326      -3.40069395
C        3.93160349       2.23835364      -2.82567255
C        3.11695724       1.43218237      -2.02157684
C        4.24043615       4.32644726      -4.26018443
O        3.76924664       5.41568861      -4.59305804
C        5.62685731       3.88003491      -4.74542245
H        6.12459321       3.22719505      -4.02332124
C        5.47259765       3.13189462      -6.06372862
O        6.49524666       4.99738549      -4.99422925
C        6.93452375       5.61565130      -3.85954442
O        6.61842554       5.28239155      -2.72395905
C        7.94752867       6.69829441      -4.22867418
O        8.59085643       7.36693519      -3.15355389
C        9.50721869       6.69642065      -2.38931462
C        9.85154763       5.34994628      -2.54881989
C       10.76062878       4.74007326      -1.67713688
C       11.34566479       5.47642164      -0.65199367
Cl      12.45394889       4.71454339       0.42087766
C       11.03914767       6.82242695      -0.49085697
C       10.12257450       7.42755107      -1.35703159
Br       9.74658869       9.27244760      -1.08854247
H        0.23625004       3.24034561      -2.17908311
H        1.66481496       4.66680985      -3.58763353
H        4.95993118       1.92283022      -2.96077228
H        3.53060386       0.53162026      -1.57316617
H        5.02922940       3.77763047      -6.83019273
H        4.83906816       2.24691806      -5.95391011
H        6.45180211       2.81896342      -6.44212916
H        7.39562328       7.46641428      -4.78243174
H        8.69931978       6.28241450      -4.91067514
H        9.42056329       4.72988567      -3.32773382
H       10.99975120       3.68540937      -1.80073491
H       11.50443425       7.39505773       0.30693514
C       -1.79104667      -1.79104667      -1.79104667
C       -2.94868970      -1.26832780      -2.35986620
C       -3.74826241      -2.07816323      -3.17255208
C       -3.39893745      -3.41534679      -3.41830433
C       -2.23139064      -3.92782516      -2.83641386
C       -1.42946558      -3.11548303      -2.02576785
C       -4.29621071      -4.22402891      -4.30682821
O       -5.21122974      -3.65830128      -4.90846227
C       -4.09074763      -5.74119619      -4.42037085
H       -3.03989443      -6.02295842      -4.31225664
C       -4.90242532      -6.43333936      -3.33245621
O       -4.55230195      -6.25373132      -5.68082813
C       -3.75144912      -5.92295316      -6.73531720
O       -2.73939138      -5.23851932      -6.64686545
C       -4.25551029      -6.62200260      -7.99698437
O       -3.46735689      -6.47483125      -9.16915737
C       -2.24941349      -7.09414262      -9.24939785
C       -1.66811658      -7.85367921      -8.22851802
C       -0.38973291      -8.40000694      -8.38809907
C        0.30838430      -8.20665999      -9.57580441
Cl       1.88381192      -8.87348842      -9.75793811
C       -0.26016021      -7.47826992     -10.61400147
C       -1.53396747      -6.92454376     -10.44864592
Br      -2.26020853      -5.94154280     -11.90582743
H       -3.23652188      -0.23417517      -2.18498171
H       -4.64732303      -1.65424084      -3.61769446
H       -1.89732230      -4.94608984      -3.00012156
H       -0.52039754      -3.52451409      -1.59047868
H       -5.97123500      -6.21954334      -3.44627426
H       -4.59409289      -6.11271384      -2.33308960
H       -4.78835253      -7.52045021      -3.40409195
H       -5.23353045      -6.18399524      -8.22694360
H       -4.41664018      -7.68689610      -7.78887314
H       -2.16695417      -8.02984174      -7.28138687
H        0.05767511      -8.96864415      -7.57492644
H        0.28627356      -7.33631936     -11.54251105
C       -1.79104667       1.79104667       1.79104667
C       -1.34435234       3.04952046       2.18301091
C       -2.15914264       3.85566477       2.98417031
C       -3.42235812       3.40823651       3.40199393
C       -3.85709092       2.13757636       3.00096239
C       -3.04233273       1.33244690       2.19593683
C       -4.24774325       4.32766285       4.25166173
O       -3.86602013       5.48672565       4.42524752
C       -5.52489892       3.80387424       4.92354150
H       -6.01728506       3.03236990       4.32545454
C       -5.16462814       3.21974345       6.28384930
O       -6.47986956       4.85222734       5.15476450
C       -7.09050376       5.29996245       4.01925327
O       -6.85179832       4.87907084       2.89390700
C       -8.17322345       6.31288250       4.38839132
O       -8.98541088       6.79711922       3.32881541
C       -9.89422063       5.96313530       2.73559803
C      -10.07524237       4.61455861       3.06051281
C      -10.99373339       3.82977222       2.35433331
C      -11.75066252       4.39199883       1.33141875
Cl     -12.86943465       3.41598065       0.46219931
C      -11.60716419       5.73628074       1.00898666
C      -10.68128331       6.51650206       1.70937179
Br     -10.53288124       8.34966519       1.22503233
H       -0.37030985       3.41707626       1.86829264
H       -1.80058477       4.84141785       3.27725571
H       -4.82778053       1.74040958       3.27534358
H       -3.39850386       0.35327114       1.88361530
H       -4.72099002       3.98371532       6.93234726
H       -4.45352030       2.39351734       6.19285868
H       -6.06346318       2.85596192       6.79346959
H       -7.65586393       7.18565850       4.80294687
H       -8.80664126       5.90174952       5.18401864
H       -9.50701930       4.12612334       3.84504013
H      -11.10539050       2.77627505       2.60422993
H      -12.20607328       6.17244339       0.21404018
C        1.79104667      -1.79104667       1.79104667
C        2.63957028      -1.20910254       2.72821089
C        3.43912421      -2.02171856       3.53813495
C        3.39922802      -3.41938606       3.41397448
C        2.54134960      -3.99030283       2.46397724
C        1.73852410      -3.17630477       1.65588759
C        4.27573747      -4.23061215       4.32071822
O        4.87718888      -3.66492319       5.23588123
C        4.44419418      -5.73615177       4.07196871
H        3.54316961      -6.18580690       3.64613298
C        5.60606832      -5.95191884       3.11023374
O        4.75864809      -6.44899611       5.27921719
C        3.70555917      -6.56448197       6.13967833
O        2.59173001      -6.09716420       5.93588194
C        4.10739526      -7.44559428       7.32150772
O        3.08941103      -7.76217250       8.25976198
C        2.07834536      -8.61255986       7.90204875
C        1.92591005      -9.18820975       6.63619400
C        0.82321133     -10.00181588       6.35281172
C       -0.12443030     -10.26061282       7.33789758
Cl      -1.48207815     -11.25347859       6.97621418
C        0.02038580      -9.72138955       8.61065625
C        1.11803089      -8.90023237       8.88889390
Br       1.26340128      -8.19499769      10.64917980
H        2.68410465      -0.12848958       2.84308452
H        4.09287059      -1.55362582       4.27276192
H        2.45126844      -5.06230542       2.32995983
H        1.06954996      -3.63481688       0.93102346
H        6.54021485      -5.56442434       3.53241340
H        5.43305814      -5.45631847       2.15051973
H        5.76008773      -7.02158555       2.93122140
H        4.87538320      -6.89366333       7.87542277
H        4.57220629      -8.36800148       6.95220167
H        2.63243076      -9.01422375       5.83152827
H        0.70732594     -10.42280767       5.35576186
H       -0.71874334      -9.93254913       9.37875105
C       -0.00445707       0.01189536      -1.78238275
H       -0.66409135       0.67374010      -2.43557963
H        0.65740317      -0.63156657      -2.45157240
C       -0.90989263      -0.90692880      -0.91072765
C        0.90977584       0.90977584      -0.90977584
C       -0.00465871       1.77757030       0.00794375
H       -0.66225468       2.44313916      -0.64384735
H        0.64322798       2.43503045       0.67728295
C       -1.78241447       0.00034974      -0.00472694
H       -2.45427497      -0.65498947       0.64260836
H       -2.43311707       0.67328779      -0.65473579
C       -0.91132561       0.90220522       0.91563759
C       -0.01476271      -0.02253852       1.78660255
H       -0.67934791      -0.69751639       2.42135241
H        0.63392994       0.61504881       2.47327442
C        0.01484550      -1.77751727      -0.01636693
H        0.67870853      -2.42144646      -0.68295456
H       -0.62264859      -2.45592969       0.64226336
C        1.78714474       0.01002794       0.00389507
H        2.44202412       0.67113390       0.66197326
H        2.45385902      -0.65136977      -0.64189061
C        0.91606151      -0.90478549       0.90901405
