174
Properties=species:S:1:pos:R:3 pbc="F F F"
C        1.79104667       1.79104667      -1.79104667
C        1.26935487       2.95058246      -2.35694638
C        2.08352049       3.75813519      -3.15732203
C        3.42154135       3.41035326      -3.40069395
C        3.93160349       2.23835364      -2.82567255
C        3.11695724       1.43218237      -2.02157684
C        4.24043615       4.32644726      -4.26018443
O        3.76924664       5.41568861      -4.59305804
C        5.62685731       3.88003491      -4.74542245
H        6.12459321       3.22719505      -4.02332124
C        5.47259765       3.13189462      -6.06372862
O        6.49524666       4.99738549      -4.99422925
C        6.93452375       5.61565130      -3.85954442
O        6.61842554       5.28239155      -2.72395905
C        7.94752867       6.69829441      -4.22867418
O        8.59085643       7.36693519      -3.15355389
C        9.50721869       6.69642065      -2.38931462
C        9.85154763       5.34994628      -2.54881989
C       10.76062878       4.74007326      -1.67713688
C       11.34566479       5.47642164      -0.65199367
Cl      12.45394889       4.71454339       0.42087766
C       11.03914767       6.82242695      -0.49085697
C       10.12257450       7.42755107      -1.35703159
H        0.23625004       3.24034561      -2.17908311
H        1.66481496       4.66680985      -3.58763353
H        4.95993118       1.92283022      -2.96077228
H        3.53060386       0.53162026      -1.57316617
H        5.02922940       3.77763047      -6.83019273
H        4.83906816       2.24691806      -5.95391011
H        6.45180211       2.81896342      -6.44212916
H        7.39562328       7.46641428      -4.78243174
H        8.69931978       6.28241450      -4.91067514
H        9.42056329       4.72988567      -3.32773382
H       10.99975120       3.68540937      -1.80073491
H       11.50443425       7.39505773       0.30693514
C        9.83789644       8.82441644      -1.15374477
C        9.59947857       9.99429119      -0.98349206
Br       9.21397703      11.88587972      -0.70820782
C       -1.79104667      -1.79104667      -1.79104667
C       -3.17622452      -1.67073885      -1.72992033
C       -3.97844215      -2.47541412      -2.54512145
C       -3.40248814      -3.40755045      -3.42254997
C       -2.00615947      -3.51856426      -3.47090594
C       -1.20349532      -2.71015667      -2.65706446
C       -4.32120872      -4.23111756      -4.27474156
O       -5.52384783      -3.96164595      -4.29249951
C       -3.76182270      -5.41657519      -5.07391678
H       -2.73221891      -5.24410357      -5.39878702
C       -3.80213780      -6.66486154      -4.20122155
O       -4.54758424      -5.69511649      -6.24416067
C       -4.39979468      -4.77169391      -7.23823089
O       -3.68625426      -3.77913239      -7.15938950
C       -5.16966321      -5.22831891      -8.47651515
O       -5.03054865      -4.43476889      -9.64602797
C       -3.84124237      -4.42827706     -10.32343453
C       -2.69284506      -5.12495591      -9.93251283
C       -1.50591849      -5.00754379     -10.66437664
C       -1.46393418      -4.20804058     -11.80210534
Cl       0.00311447      -4.06193040     -12.68879868
C       -2.59986108      -3.52782490     -12.22474561
C       -3.78250467      -3.63857382     -11.48607866
H       -3.64328739      -0.95302412      -1.05936724
H       -5.06074689      -2.36557094      -2.49294050
H       -1.49910563      -4.20618754      -4.13824053
H       -0.12098964      -2.80015248      -2.71424818
H       -4.83030288      -6.90177857      -3.90497115
H       -3.20434178      -6.54218395      -3.29337059
H       -3.42570346      -7.53110326      -4.75608797
H       -6.23265085      -5.20093986      -8.21087858
H       -4.91762423      -6.27155891      -8.70322628
H       -2.67031162      -5.75688440      -9.05098676
H       -0.61493175      -5.53782375     -10.33313999
H       -2.56385135      -2.91042966     -13.11827584
C       -4.93448908      -2.91828858     -11.96328000
C       -5.89927601      -2.31504970     -12.36293611
Br      -7.45925489      -1.33966344     -13.00914625
C       -1.79104667       1.79104667       1.79104667
C       -3.16181990       1.85578741       1.55927640
C       -3.96541381       2.65896265       2.37460126
C       -3.40447210       3.40521420       3.42290227
C       -2.02213240       3.33133503       3.64216224
C       -1.21869254       2.52427167       2.82775224
C       -4.32545120       4.23767091       4.26394573
O       -5.54321390       4.12327942       4.11149997
C       -3.74230214       5.24448674       5.26552578
H       -2.78852664       4.90677200       5.67981086
C       -3.53011672       6.57813271       4.55997147
O       -4.63422915       5.48706035       6.36557191
C       -4.71932695       4.44616860       7.24422392
O       -4.11808175       3.38609532       7.12059909
C       -5.58417405       4.85453323       8.43578998
O       -5.68551653       3.92294044       9.50288853
C       -4.60054299       3.68869110      10.30371988
C       -3.34053098       4.27305486      10.13672795
C       -2.27734661       3.92366344      10.97682887
C       -2.47102743       3.00215816      12.00089451
Cl      -1.15475744       2.57135261      13.02150457
C       -3.72093347       2.42885246      12.20264567
C       -4.77978235       2.77189959      11.35547522
H       -3.61762152       1.28363478       0.75442245
H       -5.03768713       2.69443597       2.18713523
H       -1.52990634       3.86910490       4.44452245
H       -0.14909661       2.46865046       3.01764323
H       -4.47885136       6.97594279       4.18225845
H       -2.83925381       6.48349712       3.71714540
H       -3.13213999       7.32123573       5.25951897
H       -6.60092844       4.99288131       8.05065955
H       -5.24702832       5.82490437       8.82047674
H       -3.13479825       4.99231810       9.35106643
H       -1.29736013       4.37010356      10.81843179
H       -3.86886599       1.71510144      13.00858941
C       -6.05697905       2.15500008      11.60407853
C       -7.12663128       1.63834675      11.81228379
Br      -8.85616847       0.80296200      12.14893410
C        1.79104667      -1.79104667       1.79104667
C        1.30420401      -3.00435559       2.26832411
C        2.11871709      -3.81118619       3.06907443
C        3.42200271      -3.40926483       3.40132102
C        3.89704317      -2.18362899       2.91495750
C        3.08231444      -1.37800085       2.11040116
C        4.24404735      -4.32727153       4.25574896
O        3.81566516      -5.45539714       4.50693099
C        5.57798555      -3.83750834       4.83682078
H        6.07609471      -3.12234123       4.17667355
C        5.31683469      -3.17004529       6.18134092
O        6.49130034      -4.92091645       5.07464461
C        7.02036183      -5.45419961       3.93515804
O        6.74508626      -5.07699601       2.80269388
C        8.06990338      -6.50208789       4.30250599
O        8.80212606      -7.07841123       3.23080822
C        9.71891139      -6.32203147       2.55201111
C        9.98189102      -4.97027173       2.79815105
C       10.90014359      -4.26897041       2.00872492
C       11.57532318      -4.91846784       0.98028908
Cl      12.69432102      -4.04463089       0.00866270
C       11.35010960      -6.26774614       0.73457585
C       10.42441123      -6.96439751       1.51834842
H        0.29854689      -3.33640170       2.02073016
H        1.72801856      -4.76179730       3.42944247
H        4.89873175      -1.82384101       3.12096094
H        3.46932537      -0.43476616       1.73129877
H        4.87030296      -3.87773987       6.88900977
H        4.64312994      -2.31387153       6.08289487
H        6.25728037      -2.82840533       6.62720899
H        7.53253688      -7.32594139       4.78599103
H        8.76256777      -6.08566331       5.04417835
H        9.47912582      -4.41567813       3.58337883
H       11.07569894      -3.21165259       2.19854395
H       11.88549854      -6.77227924      -0.06522094
C       10.22585414      -8.36102130       1.22918222
C       10.05956258      -9.53069371       0.98700553
Br       9.79068319     -11.42195509       0.59542630
C       -0.00445707       0.01189536      -1.78238275
H       -0.66409135       0.67374010      -2.43557963
H        0.65740317      -0.63156657      -2.45157240
C       -0.90989263      -0.90692880      -0.91072765
C        0.90977584       0.90977584      -0.90977584
C       -0.00465871       1.77757030       0.00794375
H       -0.66225468       2.44313916      -0.64384735
H        0.64322798       2.43503045       0.67728295
C       -1.78241447       0.00034974      -0.00472694
H       -2.45427497      -0.65498947       0.64260836
H       -2.43311707       0.67328779      -0.65473579
C       -0.91132561       0.90220522       0.91563759
C       -0.01476271      -0.02253852       1.78660255
H       -0.67934791      -0.69751639       2.42135241
H        0.63392994       0.61504881       2.47327442
C        0.01484550      -1.77751727      -0.01636693
H        0.67870853      -2.42144646      -0.68295456
H       -0.62264859      -2.45592969       0.64226336
C        1.78714474       0.01002794       0.00389507
H        2.44202412       0.67113390       0.66197326
H        2.45385902      -0.65136977      -0.64189061
C        0.91606151      -0.90478549       0.90901405
