153
Properties=species:S:1:pos:R:3 pbc="F F F"
C        0.00000000       0.00000000       0.00000000
C        0.88114265       0.88114265      -0.88114265
C        0.35945084       2.04067843      -1.44704236
C        1.17361647       2.84823117      -2.24741801
C        2.51163733       2.50044924      -2.49078993
C        3.02169946       1.32844961      -1.91576852
C        2.20705322       0.52227835      -1.11167282
C        3.33053212       3.41654323      -3.35028041
O        2.85934261       4.50578459      -3.68315401
C        4.71695328       2.97013089      -3.83551842
H        5.21468919       2.31729102      -3.11341721
C        4.56269362       2.22199060      -5.15382460
O        5.58534264       4.08748147      -4.08432522
C        6.02461973       4.70574728      -2.94964040
O        5.70852152       4.37248753      -1.81405503
C        7.03762465       5.78839038      -3.31877016
O        7.68095240       6.45703116      -2.24364987
C        8.59731467       5.78651662      -1.47941060
C        8.94164361       4.44004226      -1.63891586
C        9.85072476       3.83016923      -0.76723286
C       10.43576076       4.56651761       0.25791035
Cl      11.54404487       3.80463936       1.33078169
C       10.12924365       5.91252293       0.41904705
C        9.21267048       6.51764704      -0.44712757
H       -0.67365399       2.33044158      -1.26917908
H        0.75491093       3.75690582      -2.67772951
H        4.05002716       1.01292620      -2.05086826
H        2.62069984      -0.37828376      -0.66326215
H        4.11932538       2.86772645      -5.92028870
H        3.92916414       1.33701403      -5.04400608
H        5.54189808       1.90905940      -5.53222513
H        6.48571925       6.55651025      -3.87252772
H        7.78941576       5.37251048      -4.00077112
H        8.51065926       3.81998165      -2.41782980
H       10.08984718       2.77550534      -0.89083089
H       10.59453023       6.48515371       1.21683916
C        8.92799242       7.91451242      -0.24384075
C        8.68957455       9.08438717      -0.07358803
Br       8.30407301      10.97597570       0.20169620
C       -0.88114265      -0.88114265      -0.88114265
C       -1.45625683      -0.35623627      -2.03467853
C       -2.25659653      -1.17036222      -2.84230690
C       -2.49072902      -2.51158386      -2.50056362
C       -1.90648848      -3.02487892      -1.33455020
C       -1.10243907      -2.21024435      -0.52832096
C       -3.35075290      -3.33017025      -3.41643262
O       -3.69218509      -2.85486747      -4.50122866
C       -3.82593696      -4.72166058      -2.97500505
H       -3.09754398      -5.21898092      -2.32887253
C       -5.14093233      -4.57874906      -2.21882744
O       -4.07613175      -5.58528021      -4.09573736
C       -2.94247877      -6.01492099      -4.72260764
O       -1.80682367      -5.69440926      -4.39383114
C       -3.31201093      -7.02400350      -5.80877076
O       -2.23708157      -7.65774087      -6.48681099
C       -1.46416463      -8.57353987      -5.82553739
C       -1.61437559      -8.92610122      -4.48012491
C       -0.73439151      -9.83369665      -3.88003869
C        0.28987099     -10.40904854      -4.62519048
Cl       1.37296308     -11.51556582      -3.87529980
C        0.44192275     -10.09429146      -5.97035081
C       -0.43256796      -9.17919992      -6.56567720
H       -1.28564395       0.67940083      -2.31972356
H       -2.69418342      -0.74906550      -3.74629734
H       -2.03422355      -4.05564473      -1.02395333
H       -0.64682584      -2.62633838       0.36748600
H       -5.91335039      -4.13607762      -2.85791252
H       -5.02971503      -3.94947558      -1.33099365
H       -5.51224385      -5.56171715      -1.90922162
H       -3.87299571      -6.47095877      -6.57080274
H       -3.98759149      -7.78179811      -5.39330775
H       -2.39221315      -8.50280592      -3.85345163
H       -0.85087685     -10.07926089      -2.82604566
H        1.23908644     -10.55204358      -6.54988763
C       -0.23852763      -8.88577120      -7.96204675
C       -0.07601885      -8.64002464      -9.13150626
Br       0.18674410      -8.24267325     -11.02242336
C       -0.88114265       0.88114265       0.88114265
C       -0.61712494       2.24353784       0.98650885
C       -1.43243172       3.04744091       1.78939301
C       -2.51300548       2.49501902       2.49485199
C       -2.76457532       1.12097301       2.38036927
C       -1.95007998       0.31734376       1.57358064
C       -3.35184507       3.41616078       3.32934992
O       -3.16633957       4.63211122       3.24983042
C       -4.39291494       2.83388465       4.29580301
H       -4.82202384       1.89965075       3.92372283
C       -3.72704166       2.57074379       5.64072337
O       -5.47629180       3.74723855       4.53361898
C       -6.32576521       3.88051012       3.47373208
O       -6.19015279       3.30282373       2.40208756
C       -7.50549892       4.76501467       3.87427160
O       -8.54567976       4.91660552       2.91934816
C       -9.36698361       3.85853152       2.63772676
C       -9.24627196       2.58055148       3.19377828
C      -10.10334698       1.54811252       2.79666735
C      -11.09848584       1.79063679       1.85524540
Cl     -12.14016768       0.51189143       1.36584343
C      -11.25446733       3.05912787       1.30912432
C      -10.39027334       4.08721161       1.69996013
H        0.21311079       2.69276252       0.44631496
H       -1.21935804       4.11338030       1.85680792
H       -3.59234784       0.63613734       2.88533644
H       -2.16499748      -0.74535781       1.48603856
H       -3.33613735       3.49937896       6.07182422
H       -2.89949631       1.86120353       5.54948442
H       -4.45495524       2.17237998       6.35584739
H       -7.09888473       5.76788132       4.04799117
H       -7.92302831       4.41378040       4.82588864
H       -8.48453500       2.33707718       3.92685853
H       -9.98075776       0.55362498       3.22180067
H      -12.03804952       3.24521819       0.57957706
C      -10.59128933       5.38525193       1.10980432
C      -10.75964023       6.47236070       0.61554882
Br     -11.03184938       8.23012364      -0.18362052
C        0.88114265      -0.88114265       0.88114265
C        1.30189231      -0.42018498       2.12509434
C        2.10290842      -1.23488797       2.93146925
C        2.49185534      -2.51234381       2.49867734
C        2.06203373      -2.96139297       1.24249090
C        1.25716928      -2.14663929       0.43719581
C        3.34311694      -3.33656835       3.41767047
O        3.54277086      -2.93851006       4.56700029
C        3.98451454      -4.63356282       2.90452524
H        3.36522509      -5.12854061       2.15163173
C        5.34052162      -4.30632538       2.29166183
O        4.21753328      -5.57465134       3.96496471
C        3.07974685      -6.15829000       4.44197056
O        1.95155216      -5.90754181       4.03597010
C        3.44790015      -7.23003171       5.46685333
O        2.38327543      -8.01584778       5.98251023
C        1.76082122      -8.92825910       5.17416157
C        2.05965905      -9.13733019       3.82361249
C        1.32495029     -10.05667384       3.06650272
C        0.29922880     -10.78656611       3.65857312
Cl      -0.60508048     -11.90655918       2.71642384
C        0.00217184     -10.61512188       5.00542580
C        0.73113386      -9.68836824       5.75794299
H        1.00982208       0.56508848       2.48123308
H        2.41869023      -0.86492298       3.90593305
H        2.31333046      -3.94312350       0.85736765
H        0.92230874      -2.51378071      -0.53041122
H        6.00926361      -3.86106584       3.03701107
H        5.24739481      -3.60769949       1.45508995
H        5.82876127      -5.21966717       1.93475417
H        3.88585224      -6.70526875       6.32363623
H        4.22570150      -7.88369265       5.05330320
H        2.84515899      -8.59079750       3.31251422
H        1.55497492     -10.19018456       2.01102393
H       -0.79514762     -11.19302935       5.46496304
C        0.39002621      -9.54656550       7.14975388
C        0.10434855      -9.42780570       8.31539550
Br      -0.35756806      -9.23578115      10.20013941
