122
Properties=species:S:1:pos:R:3 pbc="F F F"
C        1.77756142       1.77756142      -1.77756142
C        1.40580553       2.32230545      -2.98432001
C        2.52510951       3.05843401      -3.44551030
C        3.51789989       2.91634198      -2.49292158
O        3.05106197       2.13280665      -1.46901073
C        4.86019720       3.44139113      -2.44648538
O        5.35514434       4.20664210      -3.26557135
O        5.51061467       2.97485837      -1.34147522
C        6.88924712       3.33465878      -1.27174521
C        7.76673537       2.61339242      -2.31028090
O        7.27349293       1.79211003      -3.08633915
C        9.18743439       2.94178328      -2.34665980
C       10.06745094       2.67781689      -3.38461529
C       11.40148601       3.09275703      -3.09154034
C       11.48124985       3.63938530      -1.83754351
S        9.99420636       3.69039390      -1.03365818
H        0.44995237       2.20322235      -3.47478798
H        2.61364557       3.62255096      -4.36455893
H        7.22730604       3.04730012      -0.27097673
H        6.99764483       4.42009137      -1.37464125
H        9.76018098       2.20724534      -4.31318992
H       12.24175127       2.98033691      -3.76610268
C       12.70604949       4.12260711      -1.25448044
C       13.73181919       4.52730537      -0.76616513
Br      15.39040203       5.18166824       0.02339943
C       -1.77756142      -1.77756142      -1.77756142
C       -3.14988326      -1.84420246      -1.71834527
C       -3.54156864      -2.78104284      -2.70644233
C       -2.38253081      -3.23512142      -3.30951122
O       -1.30320996      -2.61159556      -2.73807383
C       -2.18554108      -4.19492946      -4.36760317
O       -3.07537689      -4.75587356      -4.99610735
O       -0.85266466      -4.38641437      -4.58786923
C       -0.55139071      -5.41485260      -5.52940780
C       -0.84932521      -6.83224722      -5.00883627
O       -1.28179397      -7.00316065      -3.86698749
C       -0.61134358      -7.95291890      -5.91161497
C       -1.11274548      -9.23837783      -5.77875982
C       -0.66047839     -10.11302287      -6.81228212
C        0.17779628      -9.45915515      -7.67681978
S        0.39911071      -7.82785262      -7.28951653
H       -3.79071665      -1.29090367      -1.04634238
H       -4.54476170      -3.10217288      -2.95382088
H        0.52179956      -5.33662900      -5.73075346
H       -1.09248177      -5.23489354      -6.46500213
H       -1.77665708      -9.53208330      -4.97187586
H       -0.93428315     -11.15788497      -6.89602273
C        0.81257284     -10.09171192      -8.80399797
C        1.34419821     -10.62147821      -9.74800970
Br       2.20379147     -11.47806549     -11.27439682
C       -1.77756142       1.77756142       1.77756142
C       -1.94484430       1.63272846       3.13485824
C       -2.83974945       2.65657878       3.53272560
C       -3.16991830       3.36545432       2.39179083
O       -2.51072145       2.82386632       1.31829159
C       -4.04143339       4.49946247       2.20717785
O       -4.62117467       5.10593474       3.10024839
O       -4.12322174       4.82023905       0.88348747
C       -5.06336594       5.84997915       0.58230602
C       -6.52955082       5.41241065       0.74844723
O       -6.80563508       4.25945090       1.08685612
C       -7.56853069       6.40591619       0.50143058
C       -8.89218825       6.33148149       0.90621339
C       -9.66250993       7.45186749       0.47140595
C       -8.89534945       8.32145776      -0.25862855
S       -7.28162052       7.83522484      -0.39858692
H       -1.48382683       0.88244015       3.76169572
H       -3.21398148       2.85927027       4.52750371
H       -4.89632408       6.11570575      -0.46644693
H       -4.86074236       6.73273330       1.19890180
H       -9.28473923       5.50531762       1.49055939
H      -10.71630394       7.59102557       0.68086134
C       -9.40562859       9.52999101      -0.85248255
C       -9.83298737      10.54213760      -1.34983528
Br     -10.52399037      12.17869305      -2.15401258
C        1.77756142      -1.77756142       1.77756142
C        3.02026127      -2.25688955       1.43528018
C        3.46568665      -3.02171147       2.54165571
C        2.46487691      -2.96738550       3.49490105
O        1.43320661      -2.19797298       3.02169977
C        2.37883463      -3.56452081       4.80471826
O        3.26525386      -4.20721996       5.35488398
O        1.16249142      -3.30062296       5.36383388
C        0.92988300      -3.95687488       6.60889324
C        0.73641307      -5.47795561       6.47604001
O        0.76371358      -6.01947116       5.36875736
C        0.53056908      -6.24721117       7.69809721
C        0.66983604      -7.61892856       7.84111852
C        0.35842086      -8.06724937       9.16011315
C       -0.01958946      -7.01951330       9.95825482
S        0.02552271      -5.52527972       9.16745602
H        3.54148664      -2.08182554       0.50465052
H        4.39880972      -3.56021183       2.64173390
H        0.00955969      -3.52309969       7.01292351
H        1.74840792      -3.73980664       7.30416288
H        0.98336547      -8.26778763       7.02946314
H        0.40381902      -9.09995752       9.48441432
C       -0.41885594      -7.16821088      11.33378210
C       -0.75324162      -7.29274511      12.48578620
Br      -1.29391497      -7.49410641      14.34847940
C       -0.00445707       0.01189536      -1.78238275
H       -0.66409135       0.67374010      -2.43557963
H        0.65740317      -0.63156657      -2.45157240
C       -0.90989263      -0.90692880      -0.91072765
C        0.90977584       0.90977584      -0.90977584
C       -0.00465871       1.77757030       0.00794375
H       -0.66225468       2.44313916      -0.64384735
H        0.64322798       2.43503045       0.67728295
C       -1.78241447       0.00034974      -0.00472694
H       -2.45427497      -0.65498947       0.64260836
H       -2.43311707       0.67328779      -0.65473579
C       -0.91132561       0.90220522       0.91563759
C       -0.01476271      -0.02253852       1.78660255
H       -0.67934791      -0.69751639       2.42135241
H        0.63392994       0.61504881       2.47327442
C        0.01484550      -1.77751727      -0.01636693
H        0.67870853      -2.42144646      -0.68295456
H       -0.62264859      -2.45592969       0.64226336
C        1.78714474       0.01002794       0.00389507
H        2.44202412       0.67113390       0.66197326
H        2.45385902      -0.65136977      -0.64189061
C        0.91606151      -0.90478549       0.90901405
