93
Properties=species:S:1:pos:R:3 pbc="F F F"
C        0.00000000       0.00000000       0.00000000
C        0.86765740       0.86765740      -0.86765740
C        0.49590150       1.41240143      -2.07441599
C        1.61520549       2.14852998      -2.53560628
C        2.60799586       2.00643796      -1.58301756
O        2.14115795       1.22290263      -0.55910671
C        3.95029317       2.53148711      -1.53658136
O        4.44524032       3.29673808      -2.35566733
O        4.60071065       2.06495435      -0.43157120
C        5.97934310       2.42475476      -0.36184118
C        6.85683135       1.70348840      -1.40037688
O        6.36358891       0.88220600      -2.17643512
C        8.27753036       2.03187925      -1.43675578
C        9.15754692       1.76791287      -2.47471127
C       10.49158198       2.18285301      -2.18163632
C       10.57134583       2.72948127      -0.92763948
Br      12.16403855       3.35784842      -0.16944176
S        9.08430234       2.78048988      -0.12375415
H       -0.45995165       1.29331832      -2.56488396
H        1.70374154       2.71264693      -3.45465491
H        6.31740202       2.13739610       0.63892729
H        6.08774080       3.51018734      -0.46473723
H        8.85027695       1.29734132      -3.40328589
H       11.33184724       2.07043288      -2.85619866
C       -0.86765740      -0.86765740      -0.86765740
C       -2.23796513      -0.95431276      -0.79044103
C       -2.63047337      -1.88281449      -1.78605389
C       -1.47383288      -2.31225592      -2.41136258
O       -0.39532926      -1.68163078      -1.84620725
C       -1.27844251      -3.25451434      -3.48540479
O       -2.16916045      -3.81912961      -4.10935566
O        0.05373641      -3.42426395      -3.72670866
C        0.35596978      -4.43528851      -4.68662032
C        0.08494655      -5.86376600      -4.18187717
O       -0.32909564      -6.05646298      -3.03667142
C        0.32571564      -6.96842723      -5.10345380
C       -0.15598426      -8.26249034      -4.98169645
C        0.29380241      -9.11636803      -6.03350568
C        1.11078682      -8.43895785      -6.90029556
Br       1.92690933      -9.22956792      -8.38867015
S        1.31496028      -6.81021925      -6.49328739
H       -2.87690611      -0.41936809      -0.10197643
H       -3.63250223      -2.21451015      -2.02403100
H        1.42505434      -4.33927801      -4.90164716
H       -0.20059742      -4.25002281      -5.61204515
H       -0.80441827      -8.57657127      -4.16991462
H        0.03330239     -10.16370489      -6.12807628
C       -0.86765740       0.86765740       0.86765740
C       -1.12627656       0.65495944       2.20148292
C       -1.98311509       1.70716028       2.60906638
C       -2.20078687       2.49995653       1.49670797
O       -1.50927279       1.98196365       0.43193085
C       -2.99208268       3.69424628       1.33203268
O       -3.58955937       4.28245981       2.22562655
O       -2.97351224       4.09563973       0.02808422
C       -3.83206100       5.19701602      -0.26313798
C       -5.32858663       4.84162496      -0.20951497
O       -5.69134552       3.69016931       0.04071521
C       -6.29105136       5.90983981      -0.45472578
C       -7.63919796       5.89367641      -0.13270332
C       -8.31505324       7.08266772      -0.54164965
C       -7.45529886       7.94424522      -1.17107749
Br      -7.97784614       9.59576362      -1.88228103
S       -5.86691979       7.36854379      -1.24691722
H       -0.74898337      -0.15735371       2.80662097
H       -2.40548466       1.87449426       3.59106446
H       -3.58566446       5.51230393      -1.28209757
H       -3.61694212       6.02839540       0.41732785
H       -8.11419994       5.06075839       0.37594583
H       -9.36989895       7.27404531      -0.38546547
C        0.86765740      -0.86765740       0.86765740
C        2.04289685      -1.46443881       0.47538327
C        2.51637774      -2.18027585       1.60268815
C        1.59835441      -1.98111717       2.61797980
O        0.59093367      -1.17035705       2.16187656
C        1.57094494      -2.47475362       3.97266307
O        2.44889423      -3.14282261       4.50592888
O        0.42321566      -2.07874915       4.59527138
C        0.24084270      -2.62452045       5.90057589
C       -0.07045041      -4.13179027       5.89935676
O       -0.16721489      -4.75151805       4.83792688
C       -0.23605048      -4.79364373       7.18857213
C       -0.18454178      -6.15827822       7.42643461
C       -0.42474017      -6.48592039       8.79489109
C       -0.66437612      -5.35786226       9.53498045
Br      -1.05683725      -5.38240674      11.36575924
S       -0.57363209      -3.93185845       8.63032000
H        2.50211615      -1.39694653      -0.50081205
H        3.41357335      -2.78047163       1.67699840
H       -0.61230426      -2.09344208       6.33473300
H        1.12386424      -2.42198387       6.51681727
H        0.01842576      -6.88566722       6.64681119
H       -0.42840900      -7.49324426       9.19364352
