113
Properties=species:S:1:pos:R:3 pbc="F F F"
C        0.00000000       0.00000000       0.00000000
C        0.88154737       0.88154737      -0.88154737
C        1.63293273       1.89942935      -0.31081022
C        2.43555277       2.70795666      -1.12139503
C        2.49436020       2.51234750      -2.50738259
N        3.29563313       3.31817483      -3.35193349
C        4.00994018       4.45284632      -3.00860082
O        4.03319910       5.01277646      -1.92058782
C        4.78250574       5.06404280      -4.12643459
C        4.86803483       6.46121049      -4.19202999
C        5.57649236       7.07340977      -5.22691298
C        6.21025077       6.29207066      -6.19308371
C        6.14094815       4.90106202      -6.11384912
Br       7.01873266       3.84576462      -7.41448899
C        5.43521013       4.27836473      -5.08426177
C        1.73506885       1.46736982      -3.08227559
C        1.74721979       1.17843167      -4.56001345
C        0.93033159       0.66064293      -2.25542573
H        1.60761087       2.07909258       0.76065737
H        3.01258644       3.48583600      -0.63056652
H        3.27636337       3.08143895      -4.33333463
H        4.37942126       7.07385035      -3.43590299
H        5.63686240       8.15818746      -5.27619351
H        6.76241467       6.77588064      -6.99511704
H        5.42268173       3.19426191      -5.01690437
H        1.07917463       0.34916513      -4.81644904
H        2.75545894       0.89950637      -4.88314570
H        1.40875704       2.05470893      -5.12237577
H        0.33806469      -0.14236584      -2.68884775
C       -0.88154737      -0.88154737      -0.88154737
C       -0.49915883      -2.18704634      -1.15696714
C       -1.30624792      -2.99023551      -1.96842103
C       -2.49904949      -2.49962248      -2.51541832
N       -3.33326213      -3.28966280      -3.34281652
C       -3.07548846      -4.55498681      -3.84091205
O       -2.04751978      -5.20660740      -3.71243619
C       -4.17297814      -5.13511693      -4.66488807
C       -3.83045801      -5.90907348      -5.78174381
C       -4.82841205      -6.46488054      -6.58352253
C       -6.17090269      -6.25819923      -6.26630321
C       -6.50909415      -5.50461934      -5.14214580
Br      -8.33023076      -5.24414436      -4.70461115
C       -5.52005954      -4.94384794      -4.33392914
C       -2.88914235      -1.17244649      -2.22312541
C       -4.15987720      -0.56740525      -2.75838246
C       -2.06746872      -0.37362394      -1.40530758
H        0.42142650      -2.59711369      -0.75035889
H       -0.97207199      -4.00733054      -2.14958643
H       -4.17706257      -2.84280433      -3.67127006
H       -2.78328845      -6.07727798      -6.02860817
H       -4.55802698      -7.06151418      -7.45170221
H       -6.94299315      -6.69628508      -6.89413411
H       -5.80075769      -4.39124192      -3.44184841
H       -4.27671614       0.47503180      -2.44310445
H       -5.02853577      -1.12152369      -2.38805154
H       -4.15507818      -0.57760109      -3.85316247
H       -2.35602787       0.65059709      -1.17911581
C       -0.88154737       0.88154737       0.88154737
C       -1.33319043       0.40543137       2.10455051
C       -2.14417395       1.21337603       2.90735448
C       -2.51530473       2.50077092       2.49801464
N       -3.33797942       3.33856583       3.28919621
C       -3.99335035       3.01383782       4.46419916
O       -4.03760074       1.91919832       5.00976431
C       -4.76408375       4.13224995       5.07664943
C       -5.98650334       3.83895746       5.69581450
C       -6.74237615       4.85887265       6.27556632
C       -6.27475810       6.17272036       6.24792667
C       -5.04775154       6.45894393       5.64916382
Br      -4.40843362       8.23849508       5.63205757
C       -4.28409811       5.44763903       5.06609949
C       -2.04386197       2.98479733       1.25605496
C       -2.38332703       4.35921031       0.74312757
C       -1.22848414       2.16130643       0.45660967
H       -1.06555800      -0.58954484       2.45003292
H       -2.46653946       0.80293989       3.85950961
H       -3.53181481       4.25269501       2.90662714
H       -6.35144681       2.81338387       5.72434392
H       -7.69247670       4.62728752       6.75147916
H       -6.86786872       6.96182783       6.70371580
H       -3.31412508       5.68252295       4.63719999
H       -1.94680386       4.54256020      -0.24457526
H       -1.99214790       5.12410389       1.42185921
H       -3.46792485       4.47234802       0.64556888
H       -0.86526566       2.52242360      -0.50314266
C        0.88154737      -0.88154737       0.88154737
C        2.11908873      -0.41811891       1.30596467
C        2.92600442      -1.22965189       2.10924815
C        2.50939285      -2.51070073       2.49399671
N        3.30752032      -3.35455733       3.30366380
C        4.60995813      -3.14104214       3.72038705
O        5.34251621      -2.20959198       3.41445519
C        5.16731353      -4.21137280       4.59429681
C        6.51760679      -4.55613824       4.44753028
C        7.07674238      -5.55806156       5.24201118
C        6.29191539      -6.21110945       6.19238029
C        4.95336053      -5.85171417       6.35078458
Br       3.89872938      -6.72581401       7.65444287
C        4.38378629      -4.85218211       5.56186823
C        1.24339501      -2.97374895       2.06757030
C        0.71117989      -4.33132947       2.44315554
C        0.44058936      -2.14732545       1.25848543
H        2.47278595       0.56968820       1.02294832
H        3.88185263      -0.82243872       2.42469762
H        2.90513651      -4.25139413       3.53460632
H        7.13449534      -4.04402753       3.71065172
H        8.12413171      -5.82520580       5.12190586
H        6.73490209      -6.98904421       6.80946604
H        3.35034383      -4.55947945       5.72402474
H       -0.27264548      -4.51806323       1.99937104
H        0.60078046      -4.40754582       3.52978473
H        1.38420238      -5.11695584       2.08468352
H       -0.53267548      -2.49665021       0.92057187
