142
Properties=species:S:1:pos:R:3 pbc="F F F"
C        1.79145140       1.79145140      -1.79145140
C        2.54283676       2.80933338      -1.22071424
C        3.34545680       3.61786068      -2.03129905
C        3.40426423       3.42225152      -3.41728661
N        4.20553716       4.22807886      -4.26183751
C        4.91984421       5.36275034      -3.91850484
O        4.94310312       5.92268049      -2.83049184
C        5.69240977       5.97394682      -5.03633861
C        5.77793886       7.37111451      -5.10193401
C        6.48639639       7.98331380      -6.13681701
C        7.12015480       7.20197468      -7.10298773
C        7.05085218       5.81096604      -7.02375314
C        6.34511415       5.18826875      -5.99416579
C        2.64497287       2.37727384      -3.99217961
C        2.65712382       2.08833569      -5.46991747
C        1.84023561       1.57054695      -3.16532975
H        2.51751489       2.98899660      -0.14924666
H        3.92249047       4.39574002      -1.54047055
H        4.18626739       3.99134298      -5.24323866
H        5.28932529       7.98375437      -4.34580701
H        6.54676642       9.06809148      -6.18609754
H        7.67231869       7.68578466      -7.90502106
H        6.33258576       4.10416593      -5.92680840
H        1.98907866       1.25906915      -5.72635306
H        3.66536296       1.80941040      -5.79304972
H        2.31866106       2.96461296      -6.03227979
H        1.24796871       0.76753818      -3.59875178
C        7.71929219       5.00734853      -8.01420094
C        8.27911070       4.33431886      -8.84370097
Br       9.18428988       3.24608680     -10.18493236
C       -1.79145140      -1.79145140      -1.79145140
C       -1.43039923      -2.03277375      -3.10971140
C       -2.24224742      -2.83662218      -3.91574694
C       -3.42215331      -3.40422790      -3.41742115
N       -4.26430587      -4.21893740      -4.21221025
C       -4.15838759      -4.47435456      -5.56835724
O       -3.35177400      -3.99213364      -6.35236780
C       -5.19059846      -5.40265190      -6.10944485
C       -5.69911685      -5.15947267      -7.39239786
C       -6.67198525      -6.00134046      -7.93320149
C       -7.13206323      -7.09429479      -7.19875919
C       -6.60923196      -7.34612800      -5.93021140
C       -5.63698015      -6.51109096      -5.37947760
C       -3.77981238      -3.16376706      -2.07084688
C       -5.02320375      -3.74272143      -1.44945181
C       -2.95430141      -2.35208164      -1.26972926
H       -0.52286876      -1.60530267      -3.52758672
H       -1.91593596      -3.00521946      -4.93754562
H       -5.08170196      -4.58958744      -3.74955963
H       -5.33764133      -4.31053716      -7.97070817
H       -7.06678795      -5.80649112      -8.92767637
H       -7.88841833      -7.74727219      -7.62743390
H       -5.21422406      -6.74319245      -4.40614359
H       -5.14146850      -3.42516484      -0.40786753
H       -4.97566772      -4.83655067      -1.45560468
H       -5.91228840      -3.40899609      -1.99426932
H       -3.22370793      -2.15649747      -0.23405327
C       -7.07537581      -8.48424838      -5.18121746
C       -7.46577128      -9.43742420      -4.55393504
Br      -8.09700774     -10.97862888      -3.53967242
C       -1.79145140       1.79145140       1.79145140
C       -1.59760009       1.80960706       3.16567723
C       -2.40961605       2.61433811       3.97066237
C       -3.42373029       3.40515904       3.41491303
N       -4.26248645       4.22635748       4.20660960
C       -4.32272523       4.29051652       5.58785764
O       -3.70555134       3.60150018       6.38922393
C       -5.29691818       5.28273421       6.12304281
C       -6.01247534       4.95581521       7.28269683
C       -6.93929835       5.85465412       7.81257473
C       -7.14649004       7.08658059       7.19204658
C       -6.41788080       7.41810125       6.04958930
C       -5.48936252       6.52730845       5.51087773
C       -3.61004201       3.39093095       2.01345337
C       -4.66720187       4.21761678       1.33055833
C       -2.78631918       2.57590931       1.21388383
H       -0.82144914       1.20591423       3.62839478
H       -2.21609840       2.60357153       5.03903110
H       -4.95086822       4.76688395       3.70309685
H       -5.84863809       3.99734900       7.77289958
H       -7.49537593       5.59510341       8.71047611
H       -7.86843219       7.78284020       7.61185203
H       -4.90421262       6.81670054       4.64264693
H       -4.67248257       4.05456297       0.24745532
H       -4.48339004       5.28340987       1.50102316
H       -5.66075498       3.95011860       1.70468023
H       -2.92538792       2.55370120       0.13516955
C       -6.62321734       8.69706760       5.42055671
C       -6.79518669       9.76820191       4.89374192
Br      -7.07324659      11.50013550       4.04192696
C        1.79145140      -1.79145140       1.79145140
C        2.72051998      -2.64274740       1.20961700
C        3.52299548      -3.45217541       2.01944563
C        3.40505436      -3.42361018       3.41513782
N        4.20214741      -4.23470874       4.25859738
C        5.08412588      -5.23328283       3.88369068
O        5.29526532      -5.64891389       2.75209623
C        5.79897978      -5.88923897       5.01447646
C        6.04833865      -7.26599573       4.93665300
C        6.70917300      -7.91974124       5.97761295
C        7.13211893      -7.19873903       7.09425925
C        6.90101765      -5.82459848       7.15995523
C        6.24099166      -5.16085338       6.12570366
C        2.46439345      -2.54696765       4.00306522
C        2.27888129      -2.44276952       5.49372617
C        1.66183345      -1.73754285       3.17673601
H        2.83506706      -2.69067795       0.13001314
H        4.24176702      -4.09570242       1.52123160
H        4.04645237      -4.12427207       5.25012459
H        5.72474973      -7.83059285       4.06354409
H        6.89700565      -8.98912971       5.91482008
H        7.64848539      -7.71427852       7.90036051
H        6.10240928      -4.08466164       6.17648916
H        1.48968917      -1.72964263       5.75516907
H        3.20354496      -2.09703110       5.96724701
H        1.99143624      -3.41343634       5.91068123
H        0.93122922      -1.06382446       3.61920499
C        7.35276528      -5.08081531       8.30726106
C        7.73110392      -4.45789691       9.26812970
Br       8.34284550      -3.45069053      10.82177301
C       -0.00445707       0.01189536      -1.78238275
H       -0.66409135       0.67374010      -2.43557963
H        0.65740317      -0.63156657      -2.45157240
C       -0.90989263      -0.90692880      -0.91072765
C        0.90977584       0.90977584      -0.90977584
C       -0.00465871       1.77757030       0.00794375
H       -0.66225468       2.44313916      -0.64384735
H        0.64322798       2.43503045       0.67728295
C       -1.78241447       0.00034974      -0.00472694
H       -2.45427497      -0.65498947       0.64260836
H       -2.43311707       0.67328779      -0.65473579
C       -0.91132561       0.90220522       0.91563759
C       -0.01476271      -0.02253852       1.78660255
H       -0.67934791      -0.69751639       2.42135241
H        0.63392994       0.61504881       2.47327442
C        0.01484550      -1.77751727      -0.01636693
H        0.67870853      -2.42144646      -0.68295456
H       -0.62264859      -2.45592969       0.64226336
C        1.78714474       0.01002794       0.00389507
H        2.44202412       0.67113390       0.66197326
H        2.45385902      -0.65136977      -0.64189061
C        0.91606151      -0.90478549       0.90901405
