190
Properties=species:S:1:pos:R:3 pbc="F F F"
C        1.78169208       1.78169208      -1.78169208
C        1.30098219       2.53993403      -2.81797239
C        2.35632555       3.25358495      -3.46042753
C        3.59846628       2.98611096      -2.90559384
S        3.45545336       1.91916259      -1.57327122
C        4.87856482       3.52862814      -3.35397919
O        4.93474870       4.47221308      -4.14845122
C        6.17460349       2.90201655      -2.81917516
O        7.29585568       3.13361514      -3.67743269
C        7.26186474       2.40191261      -4.82844103
O        6.38851188       1.58606214      -5.09235793
C        8.44989445       2.72747741      -5.73026621
C        8.35523790       4.18788642      -6.22731921
C        9.54504937       4.51897103      -7.14656630
H        9.47018995       5.55742741      -7.48791648
C        9.53034823       3.57266508      -8.35899681
C        9.63786973       2.11202806      -7.89013200
H        9.62312372       1.44290834      -8.75774607
C       10.95079951       1.92296161      -7.11157764
C       10.96396704       2.86221280      -5.89619868
C       10.85838223       4.32178516      -6.36727271
C        9.78157241       2.53129790      -4.97071683
C        8.45176520       1.79058361      -6.96528448
H        0.25884158       2.58751452      -3.11103337
H        2.22091818       3.91594655      -4.30808802
H        6.06938546       1.82431256      -2.65416729
H        6.40078392       3.37066150      -1.85488345
H        8.34385367       4.88369423      -5.37876631
H        7.41132837       4.34503320      -6.76511245
H        8.60697734       3.71446686      -8.93358101
H       10.36344515       3.81198391      -9.03091301
H       11.80415854       2.12767189      -7.77109598
H       11.04583581       0.87573195      -6.79559880
H       11.71008848       4.58560204      -7.00768115
H       10.88703508       5.00971016      -5.51211353
H        9.85295917       1.49898262      -4.60059189
H        9.81277724       3.17165060      -4.07848782
H        7.51215266       1.89393350      -7.52426940
H        8.50579478       0.74129515      -6.64596629
C       12.19619140       2.68404946      -5.17267885
C       13.22817930       2.53483766      -4.56673098
Br      14.89681645       2.29357480      -3.58696454
C       -1.78169208      -1.78169208      -1.78169208
C       -3.05352282      -1.44112027      -2.16424552
C       -3.63071205      -2.45922862      -2.98039735
C       -2.78602786      -3.54387151      -3.16027170
S       -1.28125271      -3.28139297      -2.38524149
C       -3.09023857      -4.75894564      -3.91198794
O       -4.07266878      -4.82572886      -4.65701537
C       -2.16098243      -5.97240458      -3.76240819
O       -2.80443630      -7.20603579      -4.09643142
C       -3.71010373      -7.61881837      -3.16329627
O       -3.92599794      -7.02698785      -2.11394616
C       -4.40541660      -8.90773772      -3.59448376
C       -5.27063971      -8.65067846      -4.84912535
C       -5.98347381      -9.94465428      -5.28245862
H       -6.58881708      -9.75161541      -6.17510135
C       -6.88794167     -10.43495614      -4.13911230
C       -6.04668485     -10.71148201      -2.88186293
H       -6.69685365     -11.05671768      -2.07020680
C       -4.99651857     -11.78945169      -3.19936850
C       -4.08775719     -11.29836965      -4.33625168
C       -4.93043448     -11.02445857      -5.59254706
C       -3.36757454     -10.00975924      -3.90625336
C       -5.33029413      -9.41761226      -2.45972690
H       -3.55371089      -0.52247837      -1.88120020
H       -4.62969859      -2.41567289      -3.39958128
H       -1.74858906      -6.04872351      -2.75055274
H       -1.32497950      -5.84259818      -4.45875119
H       -4.65065041      -8.28026522      -5.67539857
H       -6.01038637      -7.86573741      -4.64535024
H       -7.65433103      -9.68201050      -3.91868368
H       -7.41569937     -11.34675663      -4.44388607
H       -5.49953853     -12.72420764      -3.47918024
H       -4.40879676     -12.00986952      -2.29850028
H       -5.43097191     -11.94075649      -5.93164327
H       -4.29406353     -10.69176341      -6.42303183
H       -2.73733297     -10.19085602      -3.02434469
H       -2.68340213      -9.67955353      -4.69995999
H       -6.07532330      -8.65308862      -2.20194364
H       -4.74719154      -9.59884553      -1.54701915
C       -3.10873946     -12.31207251      -4.63210773
C       -2.28881211     -13.16104865      -4.87988717
Br      -0.96305894     -14.53377127      -5.28052557
C       -1.78169208       1.78169208       1.78169208
C       -2.62254863       1.28981349       2.74652649
C       -3.31878647       2.34751092       3.40404063
C       -3.00100487       3.59645276       2.89271344
S       -1.81561849       3.46945153       1.66281715
C       -3.56425371       4.87374859       3.32316985
O       -4.22596079       4.96803966       4.36141256
C       -3.32188553       6.11784122       2.45606844
O       -4.30336951       7.13771608       2.66581792
C       -5.52222476       6.84002838       2.12996524
O       -5.75499171       5.82491248       1.48702777
C       -6.54415717       7.93391585       2.42956506
C       -6.82308503       7.99898425       3.94837425
C       -7.86162076       9.09315509       4.25581084
H       -8.04696234       9.13362863       5.33494287
C       -9.17199192       8.77337279       3.51664541
C       -8.92266852       8.71713627       2.00022499
H       -9.85865535       8.48539521       1.47972757
C       -8.38625283      10.07702435       1.52206158
C       -7.07369347      10.39461513       2.25406992
C       -7.32561780      10.45229279       3.76952952
C       -6.03016498       9.30855904       1.94486312
C       -7.87793947       7.62881291       1.70088091
H       -2.74370519       0.23772609       2.97595818
H       -4.04048263       2.20408209       4.20038803
H       -3.28686495       5.87166236       1.38933799
H       -2.35013149       6.53874982       2.73744756
H       -5.89823133       8.20669796       4.50138492
H       -7.18444115       7.02746757       4.30956529
H       -9.57455337       7.81474969       3.86572216
H       -9.92585571       9.53690816       3.74357820
H       -9.13565916      10.85674569       1.71052156
H       -8.23000788      10.05160804       0.43555064
H       -8.04823144      11.24197410       4.01316613
H       -6.40146740      10.69888281       4.30850856
H       -5.81529951       9.26943440       0.86779976
H       -5.07640084       9.55527322       2.43124159
H       -8.26782882       6.65046297       2.01206377
H       -7.71241918       7.56336548       0.61727155
C       -6.57737473      11.66985106       1.80569391
C       -6.16170778      12.73786115       1.43017901
Br      -5.48960949      14.46474313       0.82300317
C        1.78169208      -1.78169208       1.78169208
C        2.70192986      -2.66971076       1.28724798
C        3.37154483      -3.35298735       2.34580584
C        2.91269565      -2.97816862       3.59930681
S        1.71815738      -1.75712843       3.47260136
C        3.36711740      -3.51393495       4.88011980
O        4.38602388      -4.20652251       4.96286661
C        2.55028118      -3.20273547       6.14277855
O        2.76214356      -4.15723329       7.18752666
C        2.17758767      -5.36650766       6.94812305
O        1.49396231      -5.61034579       5.96262385
C        2.48036690      -6.36201848       8.06525270
C        3.99070440      -6.68921572       8.09052341
C        4.30078540      -7.70156427       9.20823704
H        5.37412060      -7.92140156       9.22001168
C        3.50944435      -8.99618621       8.95637956
C        2.00083194      -8.69835609       8.94084176
H        1.44294699      -9.62345029       8.75738085
C        1.58587055      -8.10266363      10.29680458
C        2.37005976      -6.80568781      10.54663095
C        3.87767649      -7.10603749      10.56372613
C        2.05864239      -5.78803085       9.43691391
C        1.69922977      -7.67990210       7.82850142
H        2.89210283      -2.83235658       0.23293006
H        4.13894928      -4.10510370       2.20089976
H        1.47761844      -3.14011182       5.93013505
H        2.87677140      -2.22782802       6.52172944
H        4.57990652      -5.77710305       8.24930464
H        4.30742808      -7.09359674       7.12044920
H        3.81316667      -9.44090772       8.00095082
H        3.73726796      -9.73215820       9.73691592
H        1.77594674      -8.83237687      11.09460280
H        0.50472739      -7.91115930      10.30127988
H        4.12406707      -7.81050620      11.36879840
H        4.45413640      -6.19290414      10.76181822
H        0.98837177      -5.53872697       9.42543494
H        2.58351863      -4.84355682       9.63584020
H        1.96485004      -8.11133780       6.85416771
H        0.61994897      -7.48052161       7.79258564
C        1.98073499      -6.25377575      11.81840896
C        1.65467550      -5.79154939      12.88352304
Br       1.12746488      -5.04416848      14.60572243
C       -0.00445707       0.01189536      -1.78238275
H       -0.66409135       0.67374010      -2.43557963
H        0.65740317      -0.63156657      -2.45157240
C       -0.90989263      -0.90692880      -0.91072765
C        0.90977584       0.90977584      -0.90977584
C       -0.00465871       1.77757030       0.00794375
H       -0.66225468       2.44313916      -0.64384735
H        0.64322798       2.43503045       0.67728295
C       -1.78241447       0.00034974      -0.00472694
H       -2.45427497      -0.65498947       0.64260836
H       -2.43311707       0.67328779      -0.65473579
C       -0.91132561       0.90220522       0.91563759
C       -0.01476271      -0.02253852       1.78660255
H       -0.67934791      -0.69751639       2.42135241
H        0.63392994       0.61504881       2.47327442
C        0.01484550      -1.77751727      -0.01636693
H        0.67870853      -2.42144646      -0.68295456
H       -0.62264859      -2.45592969       0.64226336
C        1.78714474       0.01002794       0.00389507
H        2.44202412       0.67113390       0.66197326
H        2.45385902      -0.65136977      -0.64189061
C        0.91606151      -0.90478549       0.90901405
