169
Properties=species:S:1:pos:R:3 pbc="F F F"
C        0.00000000       0.00000000       0.00000000
C        0.87178806       0.87178806      -0.87178806
C        0.39107817       1.63003000      -1.90806837
C        1.44642152       2.34368092      -2.55052350
C        2.68856225       2.07620694      -1.99568981
S        2.54554934       1.00925857      -0.66336719
C        3.96866080       2.61872411      -2.44407516
O        4.02484468       3.56230905      -3.23854720
C        5.26469947       1.99211252      -1.90927113
O        6.38595166       2.22371111      -2.76752867
C        6.35196071       1.49200859      -3.91853700
O        5.47860786       0.67615812      -4.18245391
C        7.53999043       1.81757339      -4.82036219
C        7.44533387       3.27798239      -5.31741518
C        8.63514534       3.60906701      -6.23666228
H        8.56028592       4.64752338      -6.57801246
C        8.62044421       2.66276105      -7.44909279
C        8.72796570       1.20212403      -6.98022798
H        8.71321970       0.53300432      -7.84784205
C       10.04089549       1.01305759      -6.20167362
C       10.05406302       1.95230877      -4.98629466
C        9.94847821       3.41188114      -5.45736869
C        8.87166839       1.62139388      -4.06081281
C        7.54186117       0.88067958      -6.05538046
H       -0.65106245       1.67761050      -2.20112934
H        1.31101415       3.00604253      -3.39818400
H        5.15948144       0.91440853      -1.74426327
H        5.49087990       2.46075748      -0.94497943
H        7.43394965       3.97379021      -4.46886228
H        6.50142435       3.43512917      -5.85520842
H        7.69707331       2.80456284      -8.02367699
H        9.45354113       2.90207988      -8.12100899
H       10.89425452       1.21776786      -6.86119195
H       10.13593179      -0.03417207      -5.88569478
H       10.80018445       3.67569801      -6.09777713
H        9.97713105       4.09980613      -4.60220950
H        8.94305514       0.58907859      -3.69068787
H        8.90287322       2.26174657      -3.16858379
H        6.60224863       0.98402948      -6.61436538
H        7.59589075      -0.16860888      -5.73606227
C       11.28628737       1.77414543      -4.26277482
C       12.31827527       1.62493363      -3.65682696
Br      13.98691243       1.38367077      -2.67706051
C       -0.87178806      -0.87178806      -0.87178806
C       -1.32963534      -2.10721332      -0.49232788
C       -2.12520687      -2.69454954      -1.52086953
C       -2.21507394      -1.89522411      -2.65016095
S       -1.38193567      -0.41646931      -2.41977012
C       -2.92437512      -2.22249653      -3.88458843
O       -3.71157855      -3.17207776      -3.94204462
C       -2.67561168      -1.35991328      -5.13055816
O       -2.98345572      -2.04558023      -6.34815549
C       -2.07674273      -3.01141265      -6.67435092
O       -1.06689258      -3.24636729      -6.02396001
C       -2.48149653      -3.74704078      -7.94938870
C       -3.78635308      -4.54104528      -7.71333310
C       -4.19385319      -5.29429998      -8.99272146
H       -5.12219610      -5.84851164      -8.81511403
C       -3.07380182      -6.27219505      -9.38630117
C       -1.76659998      -5.50315140      -9.64056634
H       -0.97199518      -6.20529346      -9.91677742
C       -1.98430706      -4.49221048     -10.77910915
C       -3.09774016      -3.51028808     -10.38463820
C       -4.40393884      -4.28091717     -10.13287202
C       -2.69297331      -2.74980486      -9.11109690
C       -1.37009839      -4.74584341      -8.36197941
H       -1.11284623      -2.57539903       0.46056787
H       -2.59308453      -3.67021627      -1.45193987
H       -1.64282391      -0.99809180      -5.17723752
H       -3.33649344      -0.48785738      -5.07226599
H       -4.59812742      -3.86715182      -7.41132290
H       -3.65399888      -5.25103596      -6.88672710
H       -2.92464470      -7.01105348      -8.58961496
H       -3.36158717      -6.82840594     -10.28663689
H       -2.24496093      -5.02596744     -11.70228597
H       -1.04735091      -3.95726141     -10.98284217
H       -4.72446976      -4.80861976     -11.04057007
H       -5.21741854      -3.59228413      -9.86944401
H       -1.77469754      -2.16969134      -9.27843273
H       -3.46736280      -2.01526626      -8.85057453
H       -1.18317631      -5.46453571      -7.55293146
H       -0.42333145      -4.21417421      -8.52583848
C       -3.30016055      -2.56826237     -11.45478470
C       -3.46968763      -1.77931583     -12.35103240
Br      -3.74379858      -0.50365601     -13.80018912
C       -0.87178806       0.87178806       0.87178806
C       -1.78297853       0.37719332       1.76900469
C       -2.45988312       1.43587255       2.44487029
C       -2.05700465       2.69030546       2.01314889
S       -0.81848774       2.56286774       0.83681961
C       -2.57921806       3.97224721       2.47999481
O       -3.28722260       4.04981736       3.48866097
C       -2.23383254       5.24275583       1.68949475
O       -3.17449082       6.29963873       1.90306189
C       -4.37762486       6.09000098       1.29488046
O       -4.62615282       5.12002256       0.59104450
C       -5.35961323       7.21843977       1.59987301
C       -5.71144846       7.22442088       3.10486211
C       -6.71038194       8.35360422       3.41688846
H       -6.94783316       8.35146102       4.48652758
C       -7.99560208       8.13632245       2.60037351
C       -7.67299531       8.14053219       1.09679022
H       -8.59155467       7.98165475       0.52085664
C       -7.04835625       9.49300378       0.71426666
C       -5.76069709       9.70833292       1.52363643
C       -6.08578065       9.70573838       3.02620900
C       -4.75630347       8.58707750       1.21049410
C       -6.66801121       7.01648021       0.79342978
H       -1.96600827      -0.67724355       1.93891267
H       -3.22694117       1.29096071       3.19733880
H       -2.15685218       5.04669090       0.61461016
H       -1.25842093       5.60002946       2.03816641
H       -4.80679249       7.35832869       3.71148095
H       -6.13687471       6.25615662       3.39873061
H       -8.46090160       7.18358404       2.88082749
H       -8.72238581       8.92516672       2.82907747
H       -7.76797197      10.29961907       0.90562329
H       -6.83883424       9.51199197      -0.36337171
H       -6.78097702      10.51828347       3.27439911
H       -5.17924853       9.87913797       3.62076019
H       -4.48943986       8.58897563       0.14440611
H       -3.81756690       8.76163397       1.75400272
H       -7.11970385       6.04524470       1.03569494
H       -6.45130752       6.99492674      -0.28289011
C       -5.18163162      10.97695166       1.16462434
C       -4.69666429      12.03941985       0.86395172
Br      -3.91251314      13.75734106       0.37778951
C        0.87178806      -0.87178806       0.87178806
C        2.19007646      -1.13600399       0.60309610
C        2.75238897      -1.99004995       1.59818702
C        1.83174760      -2.36340338       2.56530802
S        0.31416526      -1.62099577       2.28301406
C        2.08143428      -3.25400388       3.69602192
O        3.22819805      -3.58043885       4.01706403
C        0.88316118      -3.78966739       4.49325455
O        1.18229441      -5.00074837       5.19414866
C        1.29436516      -6.08907236       4.37906878
O        1.11092864      -6.05690236       3.16938888
C        1.66763927      -7.34056091       5.16972583
C        3.08503755      -7.18869517       5.76699873
C        3.47180969      -8.45257742       6.55648751
H        4.47526029      -8.33115631       6.97940516
C        3.45028231      -9.66793751       5.61407823
C        2.04455991      -9.84850173       5.01725608
H        2.03661682     -10.71319624       4.34425300
C        1.03306383     -10.06750608       6.15505677
C        1.04807909      -8.85133415       7.09325321
C        2.45362390      -8.67388652       7.69021762
C        0.65548477      -7.58689884       6.31149146
C        1.66069011      -8.57936435       4.23786675
H        2.73077581      -0.74976783      -0.25286625
H        3.77893100      -2.33904419       1.59726548
H        0.00870288      -3.95478937       3.85466099
H        0.61597633      -3.03711005       5.24353041
H        3.13247155      -6.31489963       6.42923095
H        3.81581152      -7.00777540       4.96817503
H        4.18370291      -9.53148729       4.81012294
H        3.74283159     -10.57183702       6.16196139
H        1.28582546     -10.98477890       6.70260998
H        0.03085475     -10.22242490       5.73417484
H        2.74074741      -9.55659325       8.27631893
H        2.47835201      -7.82041169       8.38038299
H       -0.35855203      -7.68259806       5.89877557
H        0.62234642      -6.72228357       6.98857359
H        2.36144198      -8.43436476       3.40483674
H        0.66833186      -8.70911762       3.78589467
C        0.10229549      -9.06253581       8.15837633
C       -0.68979827      -9.23941719       9.05041694
Br      -1.97054688      -9.52541943      10.49277116
