165
Properties=species:S:1:pos:R:3 pbc="F F F"
C        0.00000000       0.00000000       0.00000000
O        3.67222674       5.94978573      -7.23161459
C        4.47652367       5.06481858      -6.96457812
O        4.51785282       4.40228596      -5.76899353
C        3.82791447       5.05515906      -4.69514437
C        2.84004986       4.14630557      -3.99337859
C        1.52781304       4.41230004      -4.04965142
C        0.59622864       3.61781603      -3.23039932
O       -0.60183084       3.88761276      -3.26784275
N        1.17728652       2.63080455      -2.45212559
C        0.36635961       1.84015144      -1.63983834
C        0.86563270       0.86563270      -0.86563270
C        2.28874872       0.63037397      -0.85878913
C        3.10788396       1.37088863      -1.61942378
C        2.55406078       2.44651425      -2.48693098
N        3.37063884       3.14871964      -3.21249524
C        5.66222853       4.69102186      -7.83082285
S        5.24270564       3.75601622      -9.33354153
C        3.99970760       4.82233821     -10.05730170
C        4.30763822       6.17069284     -10.30476746
C        3.30730733       7.06535689     -10.68493115
C        2.00631460       6.60932232     -10.85293339
C        1.70557732       5.25489741     -10.69793112
C        2.70083589       4.34375985     -10.31087852
C        2.34065097       2.88821883     -10.16857236
H        3.34569686       5.99089424      -4.99842927
H        4.60106798       5.34382783      -3.97205712
H        1.10219363       5.21743609      -4.63343792
H       -0.70069689       2.05125059      -1.66783112
H        2.69249368      -0.15413154      -0.22710760
H        4.18044975       1.22449428      -1.63496734
H        6.36706118       4.08714640      -7.24559380
H        6.19317726       5.61298463      -8.09110492
H        5.31648707       6.54729470     -10.16027978
H        3.55072746       8.11758092     -10.81351941
H        0.68724989       4.91078537     -10.85662453
H        2.55877995       2.52717015      -9.15946984
H        2.89538947       2.29145188     -10.90184833
H        1.27470215       2.71942535     -10.34819492
C        0.95654886       7.54284757     -11.16935480
C        0.07737006       8.32467496     -11.43435773
Br      -1.34418772       9.58882373     -11.86284505
O       -3.97311174      -7.54524515      -5.33527017
C       -4.03165488      -6.50086459      -5.97340090
O       -4.02560930      -5.25589846      -5.40762454
C       -4.34008244      -5.22900789      -4.00912757
C       -3.30848042      -4.48165198      -3.18960162
C       -2.57051927      -5.13652691      -2.28271833
C       -1.69100395      -4.37154955      -1.38189048
O       -1.03948341      -4.97868344      -0.53545782
N       -1.70136174      -2.99840074      -1.56045418
C       -0.90412165      -2.20038010      -0.74184764
C       -0.86563270      -0.86563270      -0.86563270
C       -1.68263131      -0.22699646      -1.86828405
C       -2.46993631      -0.95445253      -2.67380753
C       -2.50622400      -2.43706782      -2.54421420
N       -3.27846631      -3.11641825      -3.33696916
C       -4.30582718      -6.41696405      -7.46128201
S       -2.90944534      -6.90144381      -8.52137423
C       -2.51863628      -8.51349188      -7.84721935
C       -3.52584276      -9.48985497      -7.76740078
C       -3.30256101     -10.67998377      -7.07505060
C       -2.06372705     -10.91277783      -6.49206544
C       -1.02664905      -9.99024330      -6.64151350
C       -1.23802159      -8.78609908      -7.33135359
C       -0.09026291      -7.82285737      -7.48432188
H       -4.52174363      -6.22429363      -3.58898311
H       -5.29545144      -4.69585482      -3.92564668
H       -2.61199471      -6.20719450      -2.13387843
H       -0.30656886      -2.71776487       0.00594892
H       -1.65569493       0.85361017      -1.96338499
H       -3.09896960      -0.50767545      -3.43326632
H       -4.58617999      -5.38927409      -7.72434729
H       -5.18217919      -7.03728075      -7.67780687
H       -4.50622004      -9.31568967      -8.20215185
H       -4.11217987     -11.39875506      -6.97089286
H       -0.05629765     -10.19894501      -6.19941714
H       -0.33917864      -6.84584573      -7.06039557
H        0.16611736      -7.71065540      -8.54415164
H        0.80502383      -8.18037129      -6.96697496
C       -1.85341173     -12.10420897      -5.71113054
C       -1.67727265     -13.10203254      -5.05709756
Br      -1.39247065     -14.71542887      -3.99958154
O       -7.68793079       4.39288081       4.77281546
C       -6.91247678       5.24258310       4.35086049
O       -5.59070605       5.01058487       4.08784138
C       -5.05487439       3.82779644       4.69554706
C       -4.35131855       2.92505050       3.70336498
C       -4.84276182       1.70628724       3.44071545
C       -4.06202248       0.78040153       2.60201997
O       -4.50824372      -0.34451042       2.38989137
N       -2.85134058       1.26872319       2.14015289
C       -2.04669569       0.45199513       1.34765857
C       -0.86563270       0.86563270       0.86563270
C       -0.40064893       2.19350219       1.18376069
C       -1.13855725       3.01155681       1.94808231
C       -2.45444609       2.55734941       2.47571051
N       -3.14758981       3.37017040       3.21409350
C       -7.23680832       6.71773962       4.22952530
S       -8.34068053       7.14355794       2.84802491
C       -9.70506356       6.02413928       3.15014467
C      -10.34371202       6.03781791       4.40156859
C      -11.27485096       5.05260991       4.73013450
C      -11.59605431       4.07386858       3.79864743
C      -11.03572674       4.10237280       2.52030632
C      -10.09368084       5.08481643       2.17697698
C       -9.52282816       5.09143303       0.78318097
H       -5.79724700       3.26540858       5.27236478
H       -4.31480051       4.17442192       5.42773051
H       -5.77217117       1.33219290       3.84870356
H       -2.42855491      -0.54426237       1.13409228
H        0.55812253       2.52499458       0.79859769
H       -0.81799787       4.01191186       2.21000165
H       -6.30754802       7.28766413       4.10458922
H       -7.67097053       7.04644086       5.17985542
H      -10.09045748       6.78552137       5.14808271
H      -11.71488577       5.04220965       5.72473236
H      -11.31613593       3.34297875       1.79554511
H       -8.43258449       5.00722974       0.80560570
H       -9.81106262       6.01310286       0.26452419
H       -9.89915689       4.25149788       0.19166764
C      -12.49764310       3.01086164       4.16024649
C      -13.25272372       2.12059332       4.46308570
Br     -14.47362521       0.68110475       4.95275110
O        6.10077467      -3.62284697       7.13000543
C        6.45735668      -4.02110479       6.02745889
O        5.63002540      -4.11633008       4.94277683
C        4.22989466      -4.09781084       5.25051239
C        3.46659727      -3.06234323       4.45079352
C        2.88982973      -2.02572525       5.07420953
C        2.01648385      -1.11993202       4.30802812
O        1.47027429      -0.18874111       4.89460927
N        1.86712420      -1.42704231       2.96605015
C        1.04930240      -0.62500070       2.17204628
C        0.86563270      -0.86563270       0.86563270
C        1.52287253      -1.99686392       0.25817536
C        2.31371599      -2.79953952       0.98494085
C        2.52648587      -2.52790668       2.43311346
N        3.29680673      -3.32220810       3.11283889
C        7.80749081      -4.64301133       5.73357110
S        9.19206035      -3.46488922       5.67531382
C        8.99442951      -2.63525723       7.24966077
C        8.95658797      -3.39653264       8.42997790
C        8.61267951      -2.80126737       9.64364849
C        8.34078478      -1.44005313       9.68773241
C        8.46313884      -0.65634664       8.53892038
C        8.80362484      -1.24227135       7.30957807
C        8.94053980      -0.36128595       6.09561642
H        4.02532152      -3.98852230       6.32117654
H        3.84871811      -5.09003211       4.97820271
H        2.98787790      -1.83135349       6.13383625
H        0.56643585       0.21509965       2.66704861
H        1.36850319      -2.19452771      -0.79756115
H        2.81819939      -3.65924076       0.56247123
H        7.76848655      -5.16310720       4.76820762
H        7.99455077      -5.41430437       6.48841166
H        9.14868279      -4.46572311       8.40965566
H        8.52877766      -3.41624873      10.53680140
H        8.27015857       0.41140727       8.59590850
H        8.26317790      -0.68286274       5.29937930
H        9.97427700      -0.38278061       5.73163207
H        8.69617584       0.67994813       6.32609471
C        7.91017970      -0.83641572      10.92215582
C        7.54954794      -0.33086939      11.95598542
Br       6.96643689       0.48655627      13.62760044
