142
Properties=species:S:1:pos:R:3 pbc="F F F"
C        1.79145427       1.79145427      -1.79145427
C        2.46639935       1.22777445      -2.86978242
C        3.25339297       2.03756374      -3.69163688
C        3.34985407       3.41481616      -3.45105508
O        4.03873652       4.30984462      -4.23721739
C        4.32035792       3.81936900      -5.54180042
C        4.73809896       4.84717756      -6.59724407
O        4.96439439       6.03072299      -6.33531099
N        4.82698416       4.43669417      -7.90867829
C        4.65359427       3.14928885      -8.43329406
C        4.63485930       3.00022662      -9.81454666
C        4.43510707       1.72852550     -10.36114090
C        4.27495970       0.64164452      -9.51349125
C        4.32430001       0.86879120      -8.15242027
N        4.50948030       2.09404479      -7.60537283
C        2.69582736       3.96159859      -2.34649796
C        1.91152364       3.15272365      -1.51824630
H        2.38400351       0.16612501      -3.08664320
H        3.77149465       1.56308277      -4.51978650
H        3.40197539       3.36559623      -5.93308731
H        5.14740674       3.10512270      -5.45836095
H        5.02925332       5.19371301      -8.54780406
H        4.75209009       3.85317115     -10.47507745
H        4.40038183       1.60099717     -11.43928193
H        4.21065162       0.06155474      -7.43407072
H        2.77942868       5.02610816      -2.14255906
H        1.39270677       3.59654631      -0.67337848
C        4.06001812      -0.68383834     -10.03358290
C        3.88000454      -1.79393022     -10.46915965
Br       3.58893780      -3.58885492     -11.17345043
C       -1.79145427      -1.79145427      -1.79145427
C       -2.21920471      -3.02762560      -1.31712591
C       -3.04584995      -3.82416099      -2.11258264
C       -3.46439235      -3.37791803      -3.37341493
O       -4.33090365      -4.05065756      -4.20423732
C       -5.09890016      -5.04467158      -3.53795560
C       -6.33270915      -5.57902479      -4.27078665
O       -6.60354083      -5.28865362      -5.43823392
N       -7.20181658      -6.39225743      -3.57828261
C       -7.08436713      -6.88115310      -2.27065695
C       -8.16657459      -7.55941207      -1.72364593
C       -8.08266053      -8.03203923      -0.41007371
C       -6.91629558      -7.82689779       0.31309790
C       -5.87835187      -7.16009903      -0.30706058
N       -5.94443544      -6.68909938      -1.57536311
C       -3.00065084      -2.15185657      -3.85141650
C       -2.16831756      -1.35427361      -3.05990242
H       -1.92505938      -3.37969649      -0.33201585
H       -3.35489682      -4.78580007      -1.71366704
H       -5.48605835      -4.60232105      -2.61227954
H       -4.44582466      -5.90634780      -3.35871793
H       -8.02742812      -6.63335537      -4.10998689
H       -9.08055004      -7.71119108      -2.28859757
H       -8.92816022      -8.54812315       0.03562244
H       -4.93678309      -6.97040815       0.20091416
H       -3.30650546      -1.80600048      -4.83558996
H       -1.83119977      -0.39338401      -3.43804777
C       -6.78966512      -8.29059943       1.67050187
C       -6.68361210      -8.67894955       2.80732768
Br      -6.51213334      -9.30687885       4.64547888
C       -1.79145427       1.79145427       1.79145427
C       -2.06280889       3.09935598       1.40179135
C       -2.88909921       3.89885738       2.19463700
C       -3.46323896       3.38655858       3.36592777
O       -4.34320762       4.06402570       4.17856521
C       -4.95472212       5.18095629       3.54584893
C       -6.20160880       5.76475868       4.21615312
O       -6.60680267       5.40106315       5.32256255
N       -6.92661783       6.71434784       3.53139095
C       -6.64287554       7.30173515       2.29156649
C       -7.60482443       8.12514730       1.71966086
C       -7.35518523       8.70011864       0.46946959
C       -6.14745199       8.44836518      -0.16572170
C       -5.23537655       7.63417442       0.47596052
N       -5.46287464       7.06305542       1.68296786
C       -3.15566517       2.08492933       3.76332941
C       -2.32420168       1.28350347       2.97478844
H       -1.64652048       3.50614420       0.48410703
H       -3.07382677       4.91663954       1.86389762
H       -5.28883284       4.85978994       2.55203616
H       -4.21503437       5.98872047       3.50713555
H       -7.77505726       6.98591386       4.00979927
H       -8.55183191       8.31367786       2.21482892
H       -8.10618427       9.33131769       0.00315896
H       -4.26974070       7.40045919       0.03607718
H       -3.58293472       1.68550232       4.67965886
H       -2.10959170       0.26559425       3.28744561
C       -5.85204957       9.01422520      -1.45651210
C       -5.60465005       9.48813297      -2.53754906
Br      -5.20462594      10.25440175      -4.28549438
C        1.79145427      -1.79145427       1.79145427
C        3.09935051      -1.40178278       2.06282293
C        3.89885163      -2.19462865       2.88911330
C        3.38655778      -3.36592841       3.46323913
O        4.06402433      -4.17856752       4.34320667
C        5.18094464      -3.54584706       4.95473565
C        5.76474225      -4.21615673       6.20162161
O        5.40105253      -5.32257252       6.60680332
N        6.71431975      -3.53139270       6.92664416
C        7.30169916      -2.29156104       6.64291698
C        8.12509862      -1.71965656       7.60487741
C        8.70006168      -0.46945847       7.35525331
C        8.44831296       0.16574073       6.14752324
C        7.63413505      -0.47594068       5.23543576
N        7.06302416      -1.68295462       5.46291915
C        2.08493436      -3.76333826       3.15565129
C        1.28350886      -2.97479705       2.32418769
H        3.50613459      -0.48409165       1.64654548
H        4.91662953      -1.86388238       3.07385202
H        4.85976730      -2.55203970       5.28885193
H        5.98871462      -3.50712088       4.21505490
H        6.98588272      -4.00980579       7.77508187
H        8.31362545      -2.21483089       8.55188236
H        9.33125067      -0.00314883       8.10626143
H        7.40042417      -0.03605128       4.26980162
H        1.68551139      -4.67967456       3.58290995
H        0.26560399      -3.28746086       2.10956670
C        9.01416475       1.45653825       5.85213618
C        9.48806563       2.53758118       5.60474952
Br      10.25432326       4.28553615       5.20474621
C       -0.00445707       0.01189536      -1.78238275
H       -0.66409135       0.67374010      -2.43557963
H        0.65740317      -0.63156657      -2.45157240
C       -0.90989263      -0.90692880      -0.91072765
C        0.90977584       0.90977584      -0.90977584
C       -0.00465871       1.77757030       0.00794375
H       -0.66225468       2.44313916      -0.64384735
H        0.64322798       2.43503045       0.67728295
C       -1.78241447       0.00034974      -0.00472694
H       -2.45427497      -0.65498947       0.64260836
H       -2.43311707       0.67328779      -0.65473579
C       -0.91132561       0.90220522       0.91563759
C       -0.01476271      -0.02253852       1.78660255
H       -0.67934791      -0.69751639       2.42135241
H        0.63392994       0.61504881       2.47327442
C        0.01484550      -1.77751727      -0.01636693
H        0.67870853      -2.42144646      -0.68295456
H       -0.62264859      -2.45592969       0.64226336
C        1.78714474       0.01002794       0.00389507
H        2.44202412       0.67113390       0.66197326
H        2.45385902      -0.65136977      -0.64189061
C        0.91606151      -0.90478549       0.90901405
