134
Properties=species:S:1:pos:R:3 pbc="F F F"
C        1.79145427       1.79145427      -1.79145427
C        2.46639935       1.22777445      -2.86978242
C        3.25339297       2.03756374      -3.69163688
C        3.34985407       3.41481616      -3.45105508
O        4.03873652       4.30984462      -4.23721739
C        4.32035792       3.81936900      -5.54180042
C        4.73809896       4.84717756      -6.59724407
O        4.96439439       6.03072299      -6.33531099
N        4.82698416       4.43669417      -7.90867829
C        4.65359427       3.14928885      -8.43329406
C        4.63485930       3.00022662      -9.81454666
C        4.43510707       1.72852550     -10.36114090
C        4.27495970       0.64164452      -9.51349125
Br       3.99396550      -1.09116579     -10.19340964
C        4.32430001       0.86879120      -8.15242027
N        4.50948030       2.09404479      -7.60537283
C        2.69582736       3.96159859      -2.34649796
C        1.91152364       3.15272365      -1.51824630
H        2.38400351       0.16612501      -3.08664320
H        3.77149465       1.56308277      -4.51978650
H        3.40197539       3.36559623      -5.93308731
H        5.14740674       3.10512270      -5.45836095
H        5.02925332       5.19371301      -8.54780406
H        4.75209009       3.85317115     -10.47507745
H        4.40038183       1.60099717     -11.43928193
H        4.21065162       0.06155474      -7.43407072
H        2.77942868       5.02610816      -2.14255906
H        1.39270677       3.59654631      -0.67337848
C       -1.79145427      -1.79145427      -1.79145427
C       -2.03488841      -3.10987660      -1.41919122
C       -2.86106087      -3.90993182      -2.21160090
C       -3.46287539      -3.38816963      -3.36468029
O       -4.34503467      -4.06679204      -4.17397181
C       -4.92761920      -5.20391815      -3.54998999
C       -6.17576289      -5.79732290      -4.20943481
O       -6.60517109      -5.42237716      -5.30288011
N       -6.87368110      -6.76988904      -3.52878647
C       -6.55981955      -7.37266373      -2.30369390
C       -7.49855013      -8.22117919      -1.72990326
C       -7.21881308      -8.81227726      -0.49368312
C       -6.00496932      -8.55090792       0.12578177
Br      -5.57877035      -9.31161875       1.79417975
C       -5.11710716      -7.71129964      -0.51710469
N       -5.37392875      -7.12439073      -1.71057845
C       -3.18325799      -2.07528987      -3.74537605
C       -2.35201671      -1.27315444      -2.95732244
H       -1.59681979      -3.52463494      -0.51531698
H       -3.02361140      -4.93591132      -1.89484120
H       -5.25037717      -4.90463018      -2.54565159
H       -4.17428898      -5.99980703      -3.53679438
H       -7.72540018      -7.04765863      -3.99771157
H       -8.45044587      -8.41729952      -2.21259330
H       -7.95154645      -9.46340167      -0.02571281
H       -4.14824497      -7.46879399      -0.08923811
H       -3.63216196      -1.66809532      -4.64783862
H       -2.15929354      -0.24684695      -3.25649106
C       -1.79145427       1.79145427       1.79145427
C       -2.39646668       2.92015672       1.24733282
C       -3.22289025       3.71360878       2.04609456
C       -3.46389410       3.36890911       3.38292210
O       -4.31272642       4.03985541       4.23321670
C       -5.24669800       4.87453381       3.56029554
C       -6.45334264       5.36170988       4.36746808
O       -6.57448987       5.17551775       5.58042075
N       -7.47013353       6.00474973       3.69747336
C       -7.53621718       6.35686654       2.34309345
C       -8.73469580       6.86132885       1.85360794
C       -8.83275590       7.19340119       0.49861637
C       -7.72787705       7.02626596      -0.32404754
Br      -7.80520338       7.44807684      -2.15707088
C       -6.56722970       6.53678026       0.24150153
N       -6.45616965       6.20312236       1.54960591
C       -2.82402659       2.25415276       3.92574457
C       -1.99147406       1.46065596       3.13036358
H       -2.24105069       3.18961580       0.20610523
H       -3.67303784       4.59070748       1.59061861
H       -5.67242268       4.29762566       2.73061059
H       -4.71263274       5.77153986       3.22671779
H       -8.26075925       6.22006712       4.28994402
H       -9.59967949       6.98323397       2.49742523
H       -9.76938872       7.57184800       0.09942421
H       -5.66519521       6.38632551      -0.34524365
H       -2.99179634       1.98958516       4.96671439
H       -1.51568877       0.58479137       3.56215141
C        1.79145427      -1.79145427       1.79145427
C        3.03010976      -1.31937076       2.21447570
C        3.82673148      -2.11474438       3.04111773
C        3.37816985      -3.37317624       3.46437922
O        4.05100938      -4.20346248       4.33132666
C        5.04898124      -3.53781741       5.09472869
C        5.58472283      -4.26871598       6.32908178
O        5.29188069      -5.43460282       6.60394486
N        6.40226698      -3.57606919       7.19402044
C        6.89444370      -2.27013118       7.07160230
C        7.57720347      -1.72201435       8.15041476
C        8.05322106      -0.40999221       8.06156020
C        7.84684876       0.31052183       6.89376853
Br       8.45748422       2.08291404       6.72163917
C        7.17546970      -0.31065143       5.85939035
N        6.70115524      -1.57745796       5.93028473
C        2.14951438      -3.84906028       3.00534926
C        1.35181847      -3.05764208       2.17303304
H        3.38408323      -0.33605490       1.91663358
H        4.79032002      -1.71764076       3.34640315
H        4.61026134      -2.60985505       5.48054255
H        5.90933778      -3.36276941       4.43878320
H        6.64418077      -4.10615761       8.02043201
H        7.72995185      -2.28485867       9.06552817
H        8.57287205       0.03660600       8.90439487
H        6.98457607       0.19524520       4.91694620
H        1.80179066      -4.83142441       3.31488083
H        0.38895903      -3.43405518       1.83961735
C       -0.00445707       0.01189536      -1.78238275
H       -0.66409135       0.67374010      -2.43557963
H        0.65740317      -0.63156657      -2.45157240
C       -0.90989263      -0.90692880      -0.91072765
C        0.90977584       0.90977584      -0.90977584
C       -0.00465871       1.77757030       0.00794375
H       -0.66225468       2.44313916      -0.64384735
H        0.64322798       2.43503045       0.67728295
C       -1.78241447       0.00034974      -0.00472694
H       -2.45427497      -0.65498947       0.64260836
H       -2.43311707       0.67328779      -0.65473579
C       -0.91132561       0.90220522       0.91563759
C       -0.01476271      -0.02253852       1.78660255
H       -0.67934791      -0.69751639       2.42135241
H        0.63392994       0.61504881       2.47327442
C        0.01484550      -1.77751727      -0.01636693
H        0.67870853      -2.42144646      -0.68295456
H       -0.62264859      -2.45592969       0.64226336
C        1.78714474       0.01002794       0.00389507
H        2.44202412       0.67113390       0.66197326
H        2.45385902      -0.65136977      -0.64189061
C        0.91606151      -0.90478549       0.90901405
