158
Properties=species:S:1:pos:R:3 pbc="F F F"
C        1.79169003       1.79169003      -1.79169003
C        1.50998462       1.91302022      -3.15068012
C        2.31305905       2.72478751      -3.95506408
C        3.39588688       3.42559720      -3.40213982
C        3.67690656       3.27800502      -2.03579013
C        2.87375229       2.46702022      -1.23124270
C        4.26771478       4.30056493      -4.27113467
N        5.34762411       3.55063170      -4.86998738
C        5.27802532       2.93952422      -6.07706528
O        4.33384181       2.92006747      -6.84802709
C        6.58463155       2.30237479      -6.30243616
C        7.37384431       2.52516608      -5.24701114
N        8.67983938       2.21485498      -4.93123942
C        9.33876895       1.01579365      -5.27104457
C       10.71838418       1.05417385      -5.51208574
C       11.41934854      -0.10588988      -5.85171257
C       10.75149192      -1.32640744      -5.92452969
C        9.38977557      -1.38003432      -5.63953719
Br       8.48084025      -3.03671557      -5.71248395
C        8.68681929      -0.22290822      -5.30130254
C        6.56424862       3.35849344      -4.31321591
O        6.98739365       3.77139706      -3.24503252
Cl       6.95220822       1.50177178      -7.75090342
H        0.67094277       1.38209579      -3.59314775
H        2.08748849       2.80693797      -5.01790407
H        4.52496446       3.79523732      -1.58893297
H        3.10082188       2.36962966      -0.17281262
H        4.68703437       5.11838065      -3.67347339
H        3.66047586       4.75437341      -5.06318059
H        8.93600704       2.53801098      -3.99440036
H       11.25098817       2.00190285      -5.47007672
H       12.48368055      -0.05423194      -6.06694743
H       11.29816668      -2.22476570      -6.19838012
H        7.62942524      -0.29405827      -5.06382641
C       -1.79169003      -1.79169003      -1.79169003
C       -1.28430589      -2.30684486      -2.98253421
C       -2.08931942      -3.11847931      -3.78511192
C       -3.40215932      -3.42559308      -3.39587149
C       -3.90371593      -2.88385297      -2.20313279
C       -3.09885757      -2.07293379      -1.40022385
C       -4.27534795      -4.29967588      -4.26439054
N       -4.98810450      -3.52570774      -5.25443094
C       -4.52641713      -3.26672733      -6.50147036
O       -3.47375441      -3.63207459      -6.99610737
C       -5.55691147      -2.45968836      -7.17284267
C       -6.57117575      -2.24575339      -6.32909240
N       -7.79192021      -1.61122117      -6.42279239
C       -8.04422692      -0.43062293      -7.15075731
C       -9.31171564      -0.25241187      -7.72051626
C       -9.61371985       0.89971308      -8.45116447
C       -8.65801183       1.90320099      -8.59480333
C       -7.41238483       1.75412387      -7.99101747
Br      -6.11803228       3.12229054      -8.16086690
C       -7.10747336       0.60402930      -7.26176956
C       -6.20230578      -2.95987556      -5.07377664
O       -6.92073396      -2.99578530      -4.08730397
Cl      -5.41285914      -1.99512378      -8.79690051
H       -0.26729937      -2.08388487      -3.29500207
H       -1.68430543      -3.51036244      -4.71766266
H       -4.92666736      -3.09094017      -1.89152722
H       -3.50055154      -1.66744166      -0.47527096
H       -4.99868015      -4.83874805      -3.64146021
H       -3.65722996      -5.05104382      -4.76975609
H       -8.30333596      -1.62878014      -5.53630229
H      -10.06418403      -1.03249776      -7.62628594
H      -10.59128329       1.00891451      -8.91402726
H       -8.89335921       2.79343471      -9.17185660
H       -6.13598511       0.52029506      -6.78350333
C       -1.79169003       1.79169003       1.79169003
C       -2.30095048       2.98606779       1.28666669
C       -3.11259329       3.78866854       2.09164882
C       -3.42561458       3.39595302       3.40205630
C       -2.88975548       2.19960854       3.90133768
C       -2.07882962       1.39667851       3.09650709
C       -4.29971354       4.26447523       4.27522561
N       -3.52480288       5.24934490       4.99409540
C       -3.25990160       6.49706829       4.53764493
O       -3.61987247       6.99661524       3.48544865
C       -2.45412862       7.16205822       5.57325565
C       -2.24664395       6.31406148       6.58531610
N       -1.61603776       6.40132667       7.80856934
C       -0.43380926       7.12430553       8.06749238
C       -0.25803230       7.68904807       9.33756340
C        0.89555982       8.41463701       9.64609404
C        1.90285491       8.55809658       8.69437251
C        1.75601770       7.95915055       7.44614558
Br       3.12925497       8.12872580       6.15713781
C        0.60447090       7.23496490       7.13471961
C       -2.96382343       5.06252054       6.20961402
O       -3.00564657       4.07369617       6.92448049
Cl      -1.98344378       8.78498077       5.43645887
H       -2.07337609       3.30127951       0.27153071
H       -3.49983396       4.72397295       1.68852362
H       -3.10147494       1.88518334       4.92247648
H       -1.67794225       0.46893606       3.49638585
H       -4.84345091       3.64092067       4.99451683
H       -5.04717363       4.77458716       3.65626907
H       -1.63844454       5.51313690       8.31683694
H       -1.04105053       7.59492394      10.08699327
H        1.00296543       8.87372874      10.62563272
H        2.79425863       9.13123356       8.93480617
H        0.52245771       6.76036036       6.16129072
C        1.79169003      -1.79169003       1.79169003
C        2.17893221      -3.05230727       1.34244547
C        2.99070475      -3.85541213       2.14679376
C        3.42591396      -3.39772415       3.39998579
C        3.01192002      -2.13358047       3.84520121
C        2.20089460      -1.33019055       3.04093006
C        4.30032769      -4.26633874       4.27274795
N        3.51475285      -5.13952234       5.11396800
C        3.13170451      -6.39269491       4.77021540
O        3.37777838      -6.98862208       3.73553591
C        2.36081201      -6.92357472       5.90505576
C        2.28743910      -5.99499821       6.86358422
N        1.74439939      -5.95113839       8.13039599
C        0.53762088      -6.56530736       8.52267893
C        0.41771814      -7.02686184       9.84006379
C       -0.75708567      -7.64233188      10.27992503
C       -1.83939557      -7.77609690       9.41291284
C       -1.74431985      -7.27687419       8.11672410
Br      -3.21741112      -7.43278355       6.94123621
C       -0.57186125      -6.66284828       7.67422658
C        3.05925808      -4.82864626       6.34805364
O        3.22165268      -3.79880782       6.98336273
Cl       1.77084303      -8.51285494       5.92118545
H        1.85587080      -3.41889682       0.37141868
H        3.28188843      -4.84226023       1.78818187
H        3.31959670      -1.76618969       4.82334835
H        1.89537419      -0.35008109       3.39780887
H        4.93728760      -3.63667212       4.90492869
H        4.96318502      -4.87160922       3.64323562
H        1.86529859      -5.03419139       8.56892840
H        1.25856293      -6.93952412      10.52488068
H       -0.82316036      -8.02379998      11.29575642
H       -2.74789702      -8.26393991       9.75573821
H       -0.52953153      -6.26365103       6.66507387
C       -0.00445707       0.01189536      -1.78238275
H       -0.66409135       0.67374010      -2.43557963
H        0.65740317      -0.63156657      -2.45157240
C       -0.90989263      -0.90692880      -0.91072765
C        0.90977584       0.90977584      -0.90977584
C       -0.00465871       1.77757030       0.00794375
H       -0.66225468       2.44313916      -0.64384735
H        0.64322798       2.43503045       0.67728295
C       -1.78241447       0.00034974      -0.00472694
H       -2.45427497      -0.65498947       0.64260836
H       -2.43311707       0.67328779      -0.65473579
C       -0.91132561       0.90220522       0.91563759
C       -0.01476271      -0.02253852       1.78660255
H       -0.67934791      -0.69751639       2.42135241
H        0.63392994       0.61504881       2.47327442
C        0.01484550      -1.77751727      -0.01636693
H        0.67870853      -2.42144646      -0.68295456
H       -0.62264859      -2.45592969       0.64226336
C        1.78714474       0.01002794       0.00389507
H        2.44202412       0.67113390       0.66197326
H        2.45385902      -0.65136977      -0.64189061
C        0.91606151      -0.90478549       0.90901405
