198
Properties=species:S:1:pos:R:3 pbc="F F F"
C        1.79149135       1.79149135      -1.79149135
C        1.29271346       2.28806323      -2.99302524
C        2.10206653       3.09205445      -3.80424465
C        3.41425722       3.40697411      -3.42091996
C        3.89345960       2.90069067      -2.20222484
C        3.08912957       2.09432212      -1.39052580
C        4.28935364       4.22425069      -4.25043661
C        3.99048464       4.77130157      -5.48305922
N        5.13101468       5.42040223      -5.87594317
H        5.28632911       5.91889301      -6.74046829
C        6.05959637       5.23472212      -4.89838015
S        7.65431364       5.85206838      -5.08799007
C        8.57900048       4.77008468      -3.95789260
C        8.71331003       3.38143539      -4.55134356
N        9.64301801       3.14264092      -5.41213910
C        9.74841210       1.76995340      -5.91018597
C       10.47266277       1.86012357      -7.26022610
C       10.53278602       0.51788259      -7.98374544
C        9.15867754      -0.12556538      -8.10461484
C        8.43001048      -0.16816864      -6.76704065
N        8.46849447       1.08413756      -6.01253210
C        7.59080235       1.16234310      -4.94407236
O        6.72157298       0.34471119      -4.67368586
C        7.76652059       2.35269933      -4.12561993
H        7.08573404       2.51820918      -3.30627202
N        5.58710407       4.53874298      -3.89485230
H        0.28050337       2.05383350      -3.31172185
H        1.68781436       3.45970972      -4.73875071
H        4.90606893       3.12909757      -1.87687547
H        3.48768928       1.70894050      -0.45612602
H        3.11023297       4.75180650      -6.10796642
H        8.10499258       4.73391797      -2.97212681
H        9.58205300       5.18910047      -3.82428233
H       10.37024209       1.19114157      -5.21354288
H       11.49202227       2.23636453      -7.10666642
H        9.97459866       2.59982356      -7.89999076
H       10.99566608       0.64966125      -8.96873513
H       11.18838384      -0.15524304      -7.41621693
H        9.24810593      -1.13713111      -8.51464132
H        8.89623027      -0.92894200      -6.12691076
H        7.38532841      -0.47383893      -6.90560307
C        8.36298130       0.57490425      -9.07919669
C        7.69658570       1.16154756      -9.89540900
Br       6.61908037       2.11010018     -11.21515526
C       -1.79149135      -1.79149135      -1.79149135
C       -3.11454292      -2.03040141      -1.42885761
C       -3.92184140      -2.84270642      -2.23381780
C       -3.41437129      -3.42085969      -3.40692032
C       -2.07963929      -3.16061678      -3.75611905
C       -1.26884279      -2.35233451      -2.95280020
C       -4.22107131      -4.28651584      -4.25645379
C       -5.53135970      -4.66888693      -4.04459880
N       -5.83703987      -5.50289141      -5.08742879
H       -6.70703024      -5.98979387      -5.24886630
C       -4.72424185      -5.60395886      -5.86449793
S       -4.71617452      -6.64045302      -7.23774455
C       -2.93431116      -6.94045083      -7.43221576
C       -2.43510035      -7.86864323      -6.34234540
N       -2.58231854      -9.14289312      -6.47258637
C       -2.03559011      -9.98551049      -5.40745087
C       -2.80194682     -11.31330250      -5.47776312
C       -2.44804617     -12.25558506      -4.33078282
C       -2.58499843     -11.57803555      -2.97469302
C       -1.85875955     -10.23917835      -2.93094459
N       -2.10163105      -9.37667490      -4.08685818
C       -1.69013037      -8.06188750      -3.94519994
O       -1.27475039      -7.55169467      -2.91352497
C       -1.80353889      -7.27635847      -5.16494248
H       -1.55683839      -6.22764684      -5.12573000
N       -3.73764794      -4.87207360      -5.41097782
H       -3.52765155      -1.59598375      -0.52242343
H       -4.94793783      -3.01615668      -1.92218027
H       -1.65805863      -3.59306910      -4.66091423
H       -0.23689475      -2.17379080      -3.24207026
H       -6.25105327      -4.44841016      -3.27054246
H       -2.37518019      -5.99966264      -7.43619453
H       -2.77057033      -7.42335441      -8.40151106
H       -0.97535771     -10.17764068      -5.62192815
H       -2.59188525     -11.80934810      -6.43381988
H       -3.88213408     -11.11914586      -5.47313303
H       -3.07038277     -13.15632061      -4.38735908
H       -1.40822813     -12.58388557      -4.45724404
H       -2.20846216     -12.23426986      -2.18288411
H       -0.77564728     -10.41768928      -2.90086247
H       -2.11100018      -9.69246878      -2.01362359
C       -3.97495735     -11.39775424      -2.64437066
C       -5.13904794     -11.24676863      -2.36772568
Br      -7.02128397     -11.00263769      -1.92041415
C       -1.79149135       1.79149135       1.79149135
C       -3.14481010       1.93326344       1.49572839
C       -3.95253990       2.74541168       2.30041404
C       -3.41517967       3.42039214       3.40657948
C       -2.04970224       3.25721494       3.68945794
C       -1.23863423       2.44937134       2.88597192
C       -4.22298888       4.28841025       4.25264181
C       -5.56366048       4.58289472       4.09829023
N       -5.85934788       5.45919402       5.10881818
H       -6.74640316       5.90502015       5.29426711
C       -4.71252113       5.66917086       5.81100666
S       -4.68899140       6.78473481       7.12064589
C       -2.92012936       7.19587451       7.19097389
C       -2.53960412       8.08391174       6.02257312
N       -2.75517940       9.35333096       6.08928767
C       -2.32078433      10.16024289       4.94752425
C       -3.15998509      11.44450907       4.98851829
C       -2.92834268      12.33497547       3.77109589
C       -3.10081887      11.57089572       2.46601241
C       -2.29943975      10.27492706       2.45451568
N       -2.42469587       9.47076787       3.66970039
C       -1.94395267       8.17517565       3.57808949
O       -1.55767225       7.62844783       2.55384996
C       -1.94118630       7.45885135       4.84480219
H       -1.63481768       6.42526311       4.85013445
N       -3.71108493       4.96830245       5.34131198
H       -3.58167938       1.42280302       0.64157632
H       -5.00311710       2.84174863       2.04140906
H       -1.60436455       3.76609663       4.54158079
H       -0.18318255       2.34695068       3.12262258
H       -6.31140262       4.27627080       3.38233247
H       -2.30640530       6.29005371       7.21457835
H       -2.73113682       7.74434734       8.11995165
H       -1.26353084      10.42436420       5.08703149
H       -2.92636142      12.00790101       5.90079079
H       -4.22516571      11.18979176       5.05945550
H       -3.59924681      13.20093468       3.81388097
H       -1.90454339      12.72839082       3.81642352
H       -2.80947334      12.19879941       1.61734339
H       -1.23236673      10.51214078       2.34969153
H       -2.56988449       9.66097954       1.58622853
C       -4.49392687      11.29305313       2.23010224
C       -5.66065482      11.06035996       2.03252748
Br      -7.54715523      10.68411478       1.71306580
C        1.79149135      -1.79149135       1.79149135
C        1.49842072      -1.92960769       3.14577352
C        2.30919276      -2.73349162       3.95568124
C        3.41713070      -3.40606532       3.41895528
C        3.68935569      -3.25735378       2.04966565
C        2.88371353      -2.45243787       1.23782610
C        4.29246902      -4.23433145       4.23724047
C        4.18823786      -4.46076063       5.59584694
N        5.24825492      -5.26986185       5.90924331
H        5.50267950      -5.62203037       6.82098054
C        5.94593498      -5.48596038       4.76080329
S        7.39928214      -6.40639258       4.78869737
C        8.22397288      -5.79323168       3.28977320
C        8.74505682      -4.38722638       3.51380578
N        9.87498339      -4.21297842       4.10983621
C       10.34361654      -2.83323652       4.25169841
C       11.32851624      -2.83583395       5.42866225
C       11.79993547      -1.43313103       5.80134754
C       10.63340313      -0.48092160       6.02340227
C        9.63834666      -0.52046541       4.87007043
N        9.27068571      -1.86555044       4.42892798
C        8.17255925      -1.93664092       3.58801765
O        7.43104601      -1.00601725       3.30290677
C        7.93284444      -3.26579755       3.04619785
H        7.06385047      -3.41940063       2.42696414
N        5.39304401      -4.89805885       3.72959650
H        0.64743400      -1.41484925       3.58377547
H        2.05952956      -2.81714397       5.00960126
H        4.54027557      -3.76786890       1.60389749
H        3.12168134      -2.34822873       0.18284574
H        3.49384581      -4.12485402       6.35130607
H        7.55172942      -5.83225797       2.42704997
H        9.07446961      -6.44826884       3.07269735
H       10.88520757      -2.55139414       3.33832483
H       12.19793206      -3.45741823       5.17970293
H       10.86242491      -3.31031314       6.30167492
H       12.44369143      -1.48307057       6.68730046
H       12.42082538      -1.04502741       4.98350494
H       10.99984600       0.54109692       6.16686706
H       10.07781751      -0.01861597       3.99776556
H        8.72824768       0.03670854       5.12555340
C        9.96686786      -0.78779712       7.26241726
C        9.40864457      -1.04480537       8.30009232
Br       8.50604472      -1.46036597       9.97792512
C       -0.00445707       0.01189536      -1.78238275
H       -0.66409135       0.67374010      -2.43557963
H        0.65740317      -0.63156657      -2.45157240
C       -0.90989263      -0.90692880      -0.91072765
C        0.90977584       0.90977584      -0.90977584
C       -0.00465871       1.77757030       0.00794375
H       -0.66225468       2.44313916      -0.64384735
H        0.64322798       2.43503045       0.67728295
C       -1.78241447       0.00034974      -0.00472694
H       -2.45427497      -0.65498947       0.64260836
H       -2.43311707       0.67328779      -0.65473579
C       -0.91132561       0.90220522       0.91563759
C       -0.01476271      -0.02253852       1.78660255
H       -0.67934791      -0.69751639       2.42135241
H        0.63392994       0.61504881       2.47327442
C        0.01484550      -1.77751727      -0.01636693
H        0.67870853      -2.42144646      -0.68295456
H       -0.62264859      -2.45592969       0.64226336
C        1.78714474       0.01002794       0.00389507
H        2.44202412       0.67113390       0.66197326
H        2.45385902      -0.65136977      -0.64189061
C        0.91606151      -0.90478549       0.90901405
