185
Properties=species:S:1:pos:R:3 pbc="F F F"
C        0.00000000       0.00000000       0.00000000
C        5.92997808      -5.78625459      -6.32985662
O        6.46754845      -4.47044910      -6.39269947
C        5.60443455      -3.43666497      -6.15631187
C        4.23950813      -3.55439266      -5.89285177
C        3.46276469      -2.41074229      -5.66754852
C        4.04524461      -1.13950805      -5.69752929
C        5.41280616      -1.02247427      -5.96636218
C        6.18340741      -2.16624494      -6.19571345
C        3.24775557       0.08383971      -5.45251757
N        3.72898189       1.28735569      -5.52645834
N        2.68700668       2.12864114      -5.25586244
C        1.56624531       1.44723922      -4.59722272
H        0.60159763       1.83742734      -4.94288551
C        1.78227375       0.02455234      -5.11352694
C        1.62115129       1.55898388      -3.09359863
C        0.79987329       0.77069316      -2.27027953
C        0.88204315       0.88204315      -0.88204315
C        1.76359160       1.78535883      -0.29542508
C        2.55978196       2.59226384      -1.10739370
C        2.47578095       2.48922956      -2.49736871
O        3.27571915       3.33513161      -3.21537455
C        2.97170517       3.42856146      -4.62314162
H        3.88795998       3.82200170      -5.08375162
C        1.91134804       4.50293541      -4.91930587
C        1.59258372       5.49693115      -3.97710473
C        0.64855743       6.48695901      -4.26624869
C        0.02053406       6.50254866      -5.50832327
Br      -1.25965312       7.83744920      -5.89792696
C        0.33653830       5.54602735      -6.46868816
C        1.28464409       4.56098333      -6.17928959
H        6.74353991      -6.49025577      -6.52782048
H        5.16494875      -5.93652747      -7.09854698
H        5.53596193      -6.00411926      -5.33166669
H        3.74672038      -4.52015683      -5.85618322
H        2.40298220      -2.54474402      -5.47294899
H        5.88862564      -0.04478047      -5.99921055
H        7.24634081      -2.06497984      -6.40383039
H        1.56296222      -0.75971613      -4.38703572
H        1.22694331      -0.15047814      -6.04186770
H        0.09890930       0.06609748      -2.71098082
H        1.83472242       1.87407838       0.78516358
H        3.24318856       3.30818810      -0.65865438
H        2.08035019       5.51195301      -3.00412190
H        0.41669610       7.23994470      -3.51772625
H       -0.14093480       5.55985249      -7.44494120
H        1.53406807       3.83140346      -6.94887126
C       -9.99923515       2.88368477       0.64197027
O      -10.00378643       1.61398935      -0.00000174
C       -8.88719856       1.27646557      -0.71334845
C       -7.75975351       2.07762687      -0.89584060
C       -6.67771144       1.61167825      -1.65353773
C       -6.71086893       0.33793115      -2.23032807
C       -7.84364360      -0.46250211      -2.05054835
C       -8.92354617       0.00846130      -1.29779105
C       -5.57581325      -0.18136967      -3.02692993
N       -5.58186787      -1.33118600      -3.62974206
N       -4.37568086      -1.43239558      -4.26343381
C       -3.38201788      -0.48598192      -3.74270746
H       -2.74204957      -0.09651128      -4.54334963
C       -4.31044201       0.61070785      -3.22061888
C       -2.50467792      -1.09313293      -2.67592295
C       -1.67140632      -0.29696953      -1.87247012
C       -0.88204315      -0.88204315      -0.88204315
C       -0.89579785      -2.26026865      -0.68830901
C       -1.69773074      -3.05923515      -1.50247361
C       -2.48403427      -2.47868169      -2.49966327
O       -3.22089762      -3.33950050      -3.26582719
C       -3.79027721      -2.76974497      -4.46338607
H       -4.61054620      -3.44768443      -4.73548268
C       -2.82642171      -2.84741190      -5.65975571
C       -1.71250654      -3.70557756      -5.64853550
C       -0.85835450      -3.79122981      -6.75218083
C       -1.11595965      -3.02807962      -7.88736673
Br       0.04130648      -3.13936759      -9.37766193
C       -2.22621157      -2.19012267      -7.93491958
C       -3.08160636      -2.11063872      -6.83267193
H      -10.94863445       2.99328178       1.17424805
H       -9.93208759       3.69512626      -0.09000692
H       -9.19338387       2.94940476       1.38046976
H       -7.68916204       3.07022492      -0.46380965
H       -5.82209952       2.26855726      -1.77764490
H       -7.89551592      -1.45524432      -2.49229548
H       -9.80013240      -0.62157967      -1.16347929
H       -3.97872747       1.08269813      -2.29425247
H       -4.50039385       1.36982235      -3.98776136
H       -1.64089846       0.78036433      -2.01545347
H       -0.28601030      -2.72140360       0.08377668
H       -1.70680699      -4.13730293      -1.36592113
H       -1.49868606      -4.32111576      -4.77662329
H       -0.00126563      -4.45833674      -6.71476468
H       -2.44013551      -1.60092650      -8.82279688
H       -3.95639512      -1.46428028      -6.89366739
C       -3.34851020      -5.24249685       8.36756676
O       -4.13609505      -4.05887461       8.31257837
C       -3.56974551      -2.96490983       7.71924577
C       -2.27911855      -2.89529601       7.19414471
C       -1.81737016      -1.70852121       6.61072197
C       -2.64431423      -0.58264242       6.54159405
C       -3.93638294      -0.65223318       7.07254431
C       -4.39149404      -1.83717943       7.65856131
C       -2.18316854       0.68012529       5.92081902
N       -2.89059775       1.76810144       5.88409674
N       -2.11711235       2.70110721       5.25329069
C       -1.00953842       2.10158490       4.49958393
H       -0.10566107       2.71967244       4.55657697
C       -0.82168132       0.80732763       5.29134409
C       -1.34977001       1.87703492       3.04692887
C       -0.53592058       1.08701705       2.21790834
C       -0.88204315       0.88204315       0.88204315
C       -2.02556282       1.46980483       0.34900786
C       -2.82128464       2.27967304       1.15848182
C       -2.47488028       2.49333115       2.49416779
O       -3.29903004       3.31987397       3.20732130
C       -2.78020819       3.76468789       4.47851216
H       -3.66425177       4.08089950       5.04856203
C       -1.93969400       5.04637680       4.34751852
C       -2.01158238       5.85541616       3.19962106
C       -1.26600179       7.03416396       3.10159939
C       -0.44819114       7.42544915       4.15776571
Br       0.56409059       9.01603485       4.02377878
C       -0.37849996       6.65679630       5.31595756
C       -1.12911348       5.48206797       5.41373556
H       -3.94466823      -6.01912331       8.85555971
H       -2.44646055      -5.08804907       8.96855678
H       -3.09813755      -5.59675339       7.36212520
H       -1.60501006      -3.74479966       7.22253637
H       -0.80440099      -1.69326325       6.22004942
H       -4.59741317       0.21088864       7.03475391
H       -5.39810478      -1.88154893       8.06863550
H       -0.57015710      -0.06356847       4.68369319
H       -0.08784588       0.93545588       6.09503111
H        0.36590587       0.62728049       2.61461298
H       -2.30230987       1.31096448      -0.68963713
H       -3.71007711       2.75164937       0.74830456
H       -2.65402104       5.57580673       2.36659733
H       -1.33579154       7.63790044       2.20067507
H        0.24843748       6.96302195       6.14927442
H       -1.07752606       4.90225837       6.33455836
C        1.69501913      -9.26030861      -4.48174763
O        2.11976803      -9.40122018      -3.13118940
C        2.55039415      -8.26960715      -2.49591985
C        2.64235881      -6.99802645      -3.06241802
C        3.10234585      -5.91694648      -2.29972141
C        3.46858141      -6.09656122      -0.96187678
C        3.38035617      -7.37275056      -0.39641267
C        2.92554577      -8.45004631      -1.16271615
C        3.94805587      -4.96793284      -0.13187587
N        4.35386878      -5.09405722       1.09486992
N        4.72750458      -3.84390516       1.50010052
C        4.18513727      -2.78503582       0.64053417
H        4.90317813      -1.96633361       0.51239874
C        4.02371525      -3.56252332      -0.66588553
C        2.89170311      -2.21441866       1.16761203
C        2.08154385      -1.38340575       0.37589638
C        0.88204315      -0.88204315       0.88204315
C        0.48098871      -1.18294400       2.18044280
C        1.29524919      -1.98240869       2.98178162
C        2.50003030      -2.48058896       2.48175996
O        3.24590986      -3.23600159       3.34431386
C        4.60284731      -3.49444503       2.92611591
H        4.91373324      -4.37395034       3.50602972
C        5.57112702      -2.38685946       3.37560284
C        5.21801778      -1.46842388       4.38017795
C        6.11559169      -0.48324121       4.80293223
C        7.38411482      -0.41296813       4.23432304
Br       8.59610546       0.92193307       4.80155066
C        7.76861550      -1.32593575       3.25670257
C        6.87166363      -2.31325625       2.83999713
H        1.37312768     -10.24396870      -4.83599176
H        2.51942436      -8.92916264      -5.12161875
H        0.83864388      -8.58205592      -4.55719045
H        2.36552941      -6.81192184      -4.09470448
H        3.16583663      -4.94507887      -2.77972834
H        3.66309271      -7.53920597       0.64075704
H        2.86027324      -9.43884455      -0.71392644
H        3.13721672      -3.29770351      -1.24463841
H        4.92202213      -3.48499496      -1.28868423
H        2.38315305      -1.13035945      -0.63752490
H       -0.45383161      -0.79844037       2.57902846
H        0.99576220      -2.21379933       4.00046951
H        4.23611491      -1.51240378       4.84790641
H        5.81491545       0.21766358       5.57711519
H        8.76189876      -1.28447387       2.81748626
H        7.19526492      -3.03150967       2.08756821
