150
Properties=species:S:1:pos:R:3 pbc="F F F"
C        1.79206498       1.79206498      -1.79206498
C        1.21462885       2.81561215      -2.54438546
C        2.01716126       3.62554857      -3.35097581
C        3.39594931       3.41854385      -3.39466716
C        3.96423748       2.39897532      -2.62451179
C        3.16563634       1.56703232      -1.83537118
S        5.71320915       2.09948235      -2.71379707
O        5.95551349       0.71944178      -2.35944322
O        6.17930739       2.64645940      -3.97174440
N        6.32517436       3.12989101      -1.50867780
C        6.50991669       2.54850148      -0.21121645
C        5.43002076       2.52943167       0.67365578
C        5.54894757       1.87543548       1.89903987
O        4.43942357       1.87393809       2.70418218
C        4.54433273       0.88434971       3.73465573
C        5.91176777       0.94142048       4.39501409
O        6.94510922       0.62376327       3.45462236
C        6.75503819       1.26398363       2.25749560
C        7.83545357       1.27518044       1.37780400
C        7.71299732       1.91641198       0.14409975
Br       9.21841586       1.93236658      -1.01309986
H        0.14115160       2.98567487      -2.51540549
H        1.56584513       4.41446257      -3.94911580
H        4.01526885       4.04622284      -4.03257589
H        3.61006844       0.75812858      -1.25934815
H        7.14006770       3.61429754      -1.88854448
H        4.49364263       3.01540438       0.41763642
H        3.76013700       1.08714593       4.47051131
H        4.35173156      -0.10097595       3.29236747
H        5.96972642       0.21254184       5.20909394
H        6.11548841       1.93589158       4.81044548
H        8.76287896       0.78597487       1.66313404
C       -1.79206498      -1.79206498      -1.79206498
C       -1.99831390      -3.12848825      -1.44782432
C       -2.80514818      -3.93828491      -2.25025256
C       -3.41350397      -3.40775115      -3.38790520
C       -3.21087843      -2.06301183      -3.71383432
C       -2.38392086      -1.25273637      -2.93138261
S       -3.94359992      -1.39485691      -5.18803174
O       -3.14853734      -0.26732395      -5.61853719
O       -4.21454030      -2.50734753      -6.07562335
N       -5.46160090      -0.86503191      -4.63711036
C       -5.54532672       0.50771993      -4.23202782
C       -5.20695609       0.83991224      -2.91875279
C       -5.17504631       2.17771913      -2.52801600
O       -4.80742693       2.42989880      -1.23165136
C       -4.44988617       3.80504944      -1.04918998
C       -5.48020829       4.71666766      -1.69463353
O       -5.51884548       4.51765735      -3.11306200
C       -5.50923578       3.18602762      -3.43831807
C       -5.84360614       2.86238462      -4.75160849
C       -5.86114249       1.52433990      -5.14850695
Br      -6.34951366       1.12517466      -6.93954329
H       -1.52978542      -3.55039383      -0.56205272
H       -2.95466375      -4.98424187      -1.99051787
H       -4.03314293      -4.04589795      -4.01502670
H       -2.20818529      -0.21448471      -3.20487518
H       -6.16672131      -1.16308169      -5.31310672
H       -4.96325521       0.06762078      -2.19577616
H       -4.39872431       3.99455400       0.02739869
H       -3.45029131       3.96423656      -1.47233339
H       -5.22378895       5.76506239      -1.51444775
H       -6.48432728       4.53553937      -1.29214661
H       -6.08928785       3.65583764      -5.45226958
C       -1.79206498       1.79206498       1.79206498
C       -3.04612592       2.19602062       1.33247993
C       -3.85665808       3.00108935       2.13593821
C       -3.41728929       3.39060813       3.40126290
C       -2.16469245       2.96679911       3.85623302
C       -1.33630247       2.18332457       3.04841280
S       -1.57964157       3.50003345       5.44681355
O       -0.13483022       3.46658199       5.43298627
O       -2.30119864       4.70939055       5.78692200
N       -2.18360276       2.29643661       6.48370380
C       -1.30171994       1.20185557       6.76605911
C       -1.28113164       0.11549487       5.88917013
C       -0.35793633      -0.91166957       6.07907641
O       -0.37748987      -1.93157111       5.16326073
C        0.82056982      -2.71420995       5.22880649
C        1.16338769      -3.04926504       6.67082689
O        1.44416659      -1.85891750       7.41733422
C        0.52755786      -0.87228975       7.16137384
C        0.51576527       0.21066213       8.03793315
C       -0.39772461       1.24732145       7.84026349
Br      -0.39908456       2.69060458       9.07419316
H       -3.39785134       1.89595613       0.34842450
H       -4.82849127       3.32853538       1.77239684
H       -4.04879036       4.02619984       4.01907738
H       -0.35156057       1.87914144       3.39684316
H       -2.58433180       2.75508053       7.30349739
H       -1.97437381       0.06154791       5.05548887
H        0.64911472      -3.63183768       4.65772402
H        1.62924550      -2.15473958       4.74237321
H        2.05468493      -3.68278911       6.71064837
H        0.34194375      -3.58219216       7.16507043
H        1.21706217       0.23512761       8.86765435
C        1.79206498      -1.79206498       1.79206498
C        2.69765072      -1.20224655       2.67472919
C        3.50497052      -2.00450430       3.48421082
C        3.39702813      -3.39369082       3.41844137
C        2.47505755      -3.97222375       2.54044328
C        1.68235823      -3.17774198       1.70793963
S        2.36782718      -5.74137703       2.41728435
O        1.85074980      -6.07426575       1.10938294
O        3.62636229      -6.28216680       2.88898210
N        1.22413846      -6.12512944       3.61447527
C       -0.13831471      -6.22788431       3.18006502
C       -0.91485806      -5.06847716       3.13217755
C       -2.20730125      -5.12038683       2.61225760
O       -2.90028873      -3.93827782       2.57119039
C       -4.03330626      -4.02813136       1.69920161
C       -4.80983315      -5.30806450       1.95994281
O       -4.00893650      -6.45881942       1.66436721
C       -2.73921163      -6.33482684       2.16591102
C       -1.96866489      -7.49495041       2.20654448
C       -0.66897838      -7.44161151       2.71267641
Br       0.33685545      -9.05093667       2.77609017
H        2.78760244      -0.12036014       2.73426939
H        4.22164924      -1.54560571       4.16216855
H        4.03562214      -4.01415611       4.04428934
H        0.98614802      -3.63400341       1.00739374
H        1.57395194      -6.92589469       4.14306309
H       -0.52278298      -4.12224268       3.49195089
H       -4.66705848      -3.15612399       1.88770612
H       -3.67967638      -3.97607900       0.66198551
H       -5.69708115      -5.34939928       1.32085618
H       -5.13696671      -5.37305764       3.00484360
H       -2.38925515      -8.42957828       1.84539666
C       -0.00445707       0.01189536      -1.78238275
H       -0.66409135       0.67374010      -2.43557963
H        0.65740317      -0.63156657      -2.45157240
C       -0.90989263      -0.90692880      -0.91072765
C        0.90977584       0.90977584      -0.90977584
C       -0.00465871       1.77757030       0.00794375
H       -0.66225468       2.44313916      -0.64384735
H        0.64322798       2.43503045       0.67728295
C       -1.78241447       0.00034974      -0.00472694
H       -2.45427497      -0.65498947       0.64260836
H       -2.43311707       0.67328779      -0.65473579
C       -0.91132561       0.90220522       0.91563759
C       -0.01476271      -0.02253852       1.78660255
H       -0.67934791      -0.69751639       2.42135241
H        0.63392994       0.61504881       2.47327442
C        0.01484550      -1.77751727      -0.01636693
H        0.67870853      -2.42144646      -0.68295456
H       -0.62264859      -2.45592969       0.64226336
C        1.78714474       0.01002794       0.00389507
H        2.44202412       0.67113390       0.66197326
H        2.45385902      -0.65136977      -0.64189061
C        0.91606151      -0.90478549       0.90901405
