138
Properties=species:S:1:pos:R:3 pbc="F F F"
C        1.78753758       1.78753758      -1.78753758
C        2.96271301       2.23091465      -1.31371655
C        1.18015209       2.06020506      -3.14518273
N        2.02905481       2.84611905      -4.00353686
C        1.96038313       4.24902877      -4.12596996
O        1.20701038       4.99978850      -3.52987296
N        2.93217785       4.60944839      -5.08138968
C        3.18226936       5.95765929      -5.52296859
C        2.40361661       6.33371635      -6.76437929
C        1.50331991       5.58588316      -7.42228606
Br       2.80001087       8.06631691      -7.38546377
C        3.57686950       3.45146385      -5.53884603
C        4.57562090       3.29611826      -6.47728565
C        5.01883459       1.99364470      -6.72955197
C        4.46248081       0.89231519      -6.04717423
C        3.44760885       1.06833360      -5.10052233
C        3.01975608       2.35854399      -4.86756623
H        3.30177111       1.98050972      -0.31314016
H        3.61684834       2.86617811      -1.90062591
H        0.23979021       2.60838606      -3.00991797
H        0.94173655       1.12088858      -3.65748482
H        4.25932290       6.07327442      -5.69159824
H        2.90161643       6.63612604      -4.70822877
H        1.23697874       4.58626619      -7.09695118
H        0.99280168       5.95774464      -8.30528607
H        5.00436632       4.13752431      -7.00850348
H        5.80444115       1.82543167      -7.46391800
H        4.82883799      -0.10959599      -6.26326820
H        3.02586180       0.21742938      -4.57909073
C       -1.78753758      -1.78753758      -1.78753758
C       -3.06491633      -2.00549615      -1.43693173
C       -1.05952165      -2.32867619      -2.99734204
N       -1.89809819      -3.11713600      -3.86347652
C       -2.01863974      -4.52028921      -3.79645290
O       -1.46347285      -5.26578032      -3.00741867
N       -2.90386425      -4.88974452      -4.82940715
C       -3.28897519      -6.24522411      -5.12869794
C       -2.42256069      -6.89260532      -6.18654624
C       -1.34753620      -6.36783907      -6.79611386
Br      -2.98429864      -8.63284511      -6.63464781
C       -3.31085091      -3.73825655      -5.51807191
C       -4.14989700      -3.59570513      -6.60342269
C       -4.36413701      -2.29812641      -7.07976784
C       -3.74469062      -1.18869623      -6.46858339
C       -2.89385940      -1.35238037      -5.37022501
C       -2.69047642      -2.63878404      -4.91660583
H       -3.48773528      -1.57186847      -0.53581725
H       -3.72480756      -2.63136521      -2.02747959
H       -0.23327257      -2.96580231      -2.65901937
H       -0.62465702      -1.51128121      -3.58417171
H       -4.34138910      -6.24707647      -5.43572998
H       -3.21484373      -6.82835802      -4.20276947
H       -0.98233494      -5.37335378      -6.56450738
H       -0.78891834      -6.92526894      -7.54164511
H       -4.62552668      -4.44426662      -7.08060082
H       -5.01792910      -2.14028504      -7.93557668
H       -3.93165405      -0.19053480      -6.86032136
H       -2.42248421      -0.49503278      -4.90486492
C       -1.78753758       1.78753758       1.78753758
C       -1.21710220       2.59112235       2.69911965
C       -3.26298443       1.62100442       1.50155102
N       -4.09947196       2.48844376       2.29079499
C       -4.69589563       2.12417235       3.51531388
O       -4.58768018       1.05596114       4.09303053
N       -5.44875290       3.23980646       3.93445656
C       -6.23965634       3.28562917       5.13761174
C       -7.68560128       2.89912030       4.91699068
C       -8.25491357       2.48159431       3.77498126
Br      -8.73249270       3.04418295       6.47511590
C       -5.32137933       4.26224590       2.98355414
C       -5.88007207       5.52271234       2.94624041
C       -5.56685909       6.32851774       1.84665443
C       -4.71389238       5.86319588       0.82488197
C       -4.15855819       4.58026272       0.87764388
C       -4.48150916       3.79788227       1.96647486
H       -0.13972068       2.62707037       2.82862995
H       -1.80373103       3.22743172       3.35248960
H       -3.55241225       0.58580224       1.71987976
H       -3.47418513       1.80428564       0.44163917
H       -6.16874756       4.29431648       5.56113152
H       -5.79280011       2.59251386       5.86065726
H       -7.69015032       2.37463921       2.85540658
H       -9.30764778       2.22063501       3.72754960
H       -6.53983076       5.88487892       3.72568444
H       -5.98750286       7.32995681       1.77633114
H       -4.48681770       6.51355234      -0.01785984
H       -3.50283096       4.23005349       0.08949746
C        1.78753758      -1.78753758       1.78753758
C        1.25839012      -2.37831195       2.87064214
C        3.21503694      -1.87410372       1.29639921
N        4.04076713      -2.74693244       2.09101115
C        4.84957079      -2.32125566       3.16455540
O        4.96203073      -1.18432131       3.59031981
N        5.50823629      -3.47226973       3.64250989
C        6.45300038      -3.47992545       4.72997141
C        7.88880592      -3.33808764       4.27481869
C        8.33469096      -3.15510980       3.02168837
Br       9.12370300      -3.43540620       5.69268235
C        5.11626835      -4.57726948       2.87364155
C        5.49993398      -5.89991885       2.94917198
C        4.93140186      -6.78416631       2.02646309
C        4.00500687      -6.33293267       1.06403069
C        3.62971393      -4.98677145       0.99997940
C        4.20328484      -4.12828186       1.91429959
H        0.21534074      -2.24106097       3.13901928
H        1.84841878      -3.00526517       3.52996842
H        3.66145795      -0.87259309       1.32404321
H        3.24551030      -2.21844593       0.25615372
H        6.31740945      -4.40602642       5.30075968
H        6.20682898      -2.64364694       5.39549531
H        7.66067550      -3.08442630       2.17509430
H        9.39386918      -3.05760804       2.80435517
H        6.21462716      -6.25252107       3.68324588
H        5.20752391      -7.83677888       2.04948802
H        3.57786985      -7.04467819       0.35996217
H        2.91620534      -4.64758700       0.25858957
C       -0.00445707       0.01189536      -1.78238275
H       -0.66409135       0.67374010      -2.43557963
H        0.65740317      -0.63156657      -2.45157240
C       -0.90989263      -0.90692880      -0.91072765
C        0.90977584       0.90977584      -0.90977584
C       -0.00465871       1.77757030       0.00794375
H       -0.66225468       2.44313916      -0.64384735
H        0.64322798       2.43503045       0.67728295
C       -1.78241447       0.00034974      -0.00472694
H       -2.45427497      -0.65498947       0.64260836
H       -2.43311707       0.67328779      -0.65473579
C       -0.91132561       0.90220522       0.91563759
C       -0.01476271      -0.02253852       1.78660255
H       -0.67934791      -0.69751639       2.42135241
H        0.63392994       0.61504881       2.47327442
C        0.01484550      -1.77751727      -0.01636693
H        0.67870853      -2.42144646      -0.68295456
H       -0.62264859      -2.45592969       0.64226336
C        1.78714474       0.01002794       0.00389507
H        2.44202412       0.67113390       0.66197326
H        2.45385902      -0.65136977      -0.64189061
C        0.91606151      -0.90478549       0.90901405
