162
Properties=species:S:1:pos:R:3 pbc="F F F"
C        3.72858103       4.83660863      -5.32002729
O        4.27532431       4.07502662      -4.24815380
C        3.40512475       3.38221752      -3.44935826
C        2.04834983       3.20584893      -3.73747904
C        1.24391096       2.41218824      -2.91167906
C        1.79106671       1.79106671      -1.79106671
C        3.13417076       1.96107113      -1.47749879
C        3.93484727       2.75689996      -2.30810896
S        5.65821427       2.94769029      -1.90105947
O        5.93157930       4.36875501      -1.83103183
O        5.95183556       2.08248959      -0.77653221
N        6.45400246       2.33771814      -3.27996975
C        6.24944020       0.95699745      -3.57640589
C        6.95967142      -0.00892787      -2.86961513
C        6.70052664      -1.36164550      -3.08958551
C        5.70734073      -1.74792320      -3.99476587
C        4.97012816      -0.78419598      -4.70173801
C        3.85604077      -1.14929893      -5.64241336
C        5.26788239       0.57302708      -4.49277144
H        3.00090205       5.56994079      -4.95715779
H        3.28843830       4.18043877      -6.07810406
H        4.54970389       5.38333562      -5.79203646
H        1.58108481       3.65786044      -4.60723204
H        0.19219356       2.27988634      -3.15743243
H        3.55783850       1.47411710      -0.60207490
H        6.29768927       2.98797848      -4.05242405
H        7.71206039       0.28651338      -2.14168457
H        7.26778942      -2.10492317      -2.53586287
H        3.41272115      -0.26052517      -6.10217419
H        3.05700013      -1.66592139      -5.09992341
H        4.22592947      -1.78578800      -6.45200740
H        4.71050831       1.33040293      -5.03591130
C        5.46899989      -3.15855334      -4.15882761
C        5.26938944      -4.33995608      -4.29622933
Br       4.94663622      -6.25018439      -4.51839627
C       -5.41887390      -3.78926093      -4.67708213
O       -4.22774801      -4.29123994      -4.07951678
C       -3.44656345      -3.41183046      -3.37830662
C       -3.84047963      -2.11448692      -3.03671126
C       -3.01600000      -1.30683629      -2.24494197
C       -1.79106671      -1.79106671      -1.79106671
C       -1.37257213      -3.07284123      -2.12732733
C       -2.20239048      -3.87705990      -2.92040581
S       -1.65793095      -5.52380395      -3.32522913
O       -1.70968871      -5.65446872      -4.76720871
O       -0.42762731      -5.77937659      -2.60385346
N       -2.88608947      -6.51115015      -2.67445073
C       -3.05626829      -6.46821254      -1.25836271
C       -2.19030204      -7.18886084      -0.44119580
C       -2.29275094      -7.08136404       0.94564833
C       -3.24207384      -6.22736574       1.51525618
C       -4.11051451      -5.48022302       0.70306734
C       -5.10847121      -4.50818484       1.26750084
C       -4.01581881      -5.62666773      -0.69119436
H       -5.20322541      -2.96268536      -5.36208986
H       -6.14298674      -3.49296227      -3.91103213
H       -5.86596608      -4.60000050      -5.25910939
H       -4.79207847      -1.69928563      -3.35481320
H       -3.34399872      -0.30308843      -1.98242519
H       -0.41582617      -3.44755031      -1.77065402
H       -3.73273506      -6.37530295      -3.23005379
H       -1.42963299      -7.83118887      -0.87943648
H       -1.61470054      -7.65542439       1.57139580
H       -5.69690635      -4.03356588       0.47610206
H       -4.59262767      -3.70922537       1.81085089
H       -5.80992601      -5.01750533       1.93528246
H       -4.68392023      -5.05999005      -1.33291226
C       -3.28123784      -6.14011300       2.95207667
C       -3.31403769      -6.06703884       4.15541384
Br      -3.36707227      -5.94888410       6.10110826
C       -5.36639272       3.75224550       4.76657874
O       -4.23927572       4.28266102       4.07656799
C       -3.44825267       3.40807441       3.38037345
C       -3.78586384       2.07425802       3.13155594
C       -2.96058511       1.26840682       2.33878633
C       -1.79106671       1.79106671       1.79106671
C       -1.42835660       3.11037539       2.03400869
C       -2.25869358       3.91259332       2.82856929
S       -1.78737843       5.60638529       3.11320030
O       -1.76917328       5.81546082       4.54673204
O       -0.61389082       5.88623599       2.31073055
N       -3.10250411       6.48816403       2.48102221
C       -3.34554855       6.35613233       1.08116266
C       -2.56673097       7.07472131       0.17890640
C       -2.73703328       6.88360700      -1.19217362
C       -3.66565258       5.94915509      -1.66062427
C       -4.44570467       5.20373809      -0.76177257
C       -5.41585501       4.14929398      -1.21599379
C       -4.28493834       5.43368656       0.61505600
H       -5.06796403       2.97847968       5.48155693
H       -6.11255420       3.37474230       4.05968464
H       -5.82683401       4.56951414       5.32872782
H       -4.69405220       1.62736957       3.52475553
H       -3.24485542       0.23529693       2.14935998
H       -0.51481091       3.51498807       1.60423151
H       -3.90914738       6.33883617       3.09010825
H       -1.82125023       7.78061423       0.53839388
H       -2.12701975       7.45682244      -1.88511307
H       -5.93328301       3.68938704      -0.36829989
H       -4.88546705       3.34963846      -1.74410336
H       -6.17974352       4.58173494      -1.86932959
H       -4.88459579       4.86926750       1.32295926
C       -3.77668307       5.77878400      -3.08619290
C       -3.86967110       5.63609821      -4.28010663
Br      -4.02002489       5.40538736      -6.21056415
C        3.68668789      -5.07554956       5.12297951
O        4.24571868      -4.07538285       4.27740320
C        3.39498274      -3.39017211       3.45154568
C        2.00078614      -3.45990942       3.53098225
C        1.20119751      -2.66241427       2.70416647
C        1.79106671      -1.79106671       1.79106671
C        3.17449451      -1.71281794       1.68542824
C        3.97008874      -2.51376924       2.51599821
S        5.74129591      -2.38590280       2.37976532
O        6.25552502      -3.72149670       2.15434441
O        6.04358747      -1.31197303       1.45529686
N        6.21886841      -1.90778719       3.94503476
C        5.74619242      -0.63957978       4.39707136
C        6.37845177       0.52223494       3.96414185
C        5.86812187       1.76811708       4.32846186
C        4.70547084       1.85189210       5.10060467
C        4.04649662       0.68834083       5.52951441
C        2.76437488       0.72827120       6.31305152
C        4.59367456      -0.55826598       5.18174037
H        3.15117920      -5.83413707       4.54268435
H        3.03943183      -4.62496558       5.88258373
H        4.51176359      -5.57062650       5.64268588
H        1.49638503      -4.11294568       4.23684657
H        0.11801115      -2.72452272       2.78697846
H        3.63133256      -1.03096754       0.97173039
H        6.06484126      -2.69358233       4.57966820
H        7.26571392       0.46307994       3.33762436
H        6.37628373       2.66673764       3.98918303
H        2.41485684      -0.27889181       6.56062151
H        1.97593234       1.20891331       5.72398311
H        2.90327888       1.26664515       7.25551514
H        4.09902662      -1.46745962       5.51033631
C        4.21373390       3.16658557       5.42212584
C        3.80190421       4.26764135       5.69139983
Br       3.13601044       6.04795542       6.12679308
C       -0.00445707       0.01189536      -1.78238275
H       -0.66409135       0.67374010      -2.43557963
H        0.65740317      -0.63156657      -2.45157240
C       -0.90989263      -0.90692880      -0.91072765
C        0.90977584       0.90977584      -0.90977584
C       -0.00465871       1.77757030       0.00794375
H       -0.66225468       2.44313916      -0.64384735
H        0.64322798       2.43503045       0.67728295
C       -1.78241447       0.00034974      -0.00472694
H       -2.45427497      -0.65498947       0.64260836
H       -2.43311707       0.67328779      -0.65473579
C       -0.91132561       0.90220522       0.91563759
C       -0.01476271      -0.02253852       1.78660255
H       -0.67934791      -0.69751639       2.42135241
H        0.63392994       0.61504881       2.47327442
C        0.01484550      -1.77751727      -0.01636693
H        0.67870853      -2.42144646      -0.68295456
H       -0.62264859      -2.45592969       0.64226336
C        1.78714474       0.01002794       0.00389507
H        2.44202412       0.67113390       0.66197326
H        2.45385902      -0.65136977      -0.64189061
C        0.91606151      -0.90478549       0.90901405
