113
Properties=species:S:1:pos:R:3 pbc="F F F"
C        0.00000000       0.00000000       0.00000000
C        2.42194087       7.16112344      -7.78469544
N        1.43781651       6.38741083      -7.06768294
C        0.13254790       6.72130502      -6.85302892
C       -0.35050351       5.78294792      -5.96731316
C        0.73981817       4.92761555      -5.72876696
N        1.80581309       5.24676734      -6.45713908
N        0.83285420       3.84978680      -4.86571482
S        0.33495205       4.08222498      -3.27193983
O        0.90275008       5.30439017      -2.74580654
O       -1.09660217       3.85035384      -3.22965073
C        1.12478690       2.74958428      -2.40146215
C        0.31197139       1.92590463      -1.60523620
C        0.88125697       0.88125697      -0.88125697
C        2.24981406       0.63906749      -0.94764083
C        3.05966085       1.45994418      -1.73468546
C        2.50592704       2.52678025      -2.45634871
H        1.92753292       7.71881618      -8.58329948
H        3.17036099       6.48665354      -8.20855256
H        2.89069175       7.84776801      -7.07470798
H       -0.32058331       7.59380772      -7.30194405
H       -1.34350331       5.74171296      -5.53871832
H        1.75572564       3.43086766      -4.94489479
H       -0.75970143       2.10773101      -1.53719608
H        2.69853220      -0.17650995      -0.38630422
H        4.12992328       1.26243117      -1.76964239
C        3.43938599       3.32440995      -3.20870584
C        4.22115786       3.99242483      -3.83880493
Br       5.48521685       5.07254838      -4.85762187
C       -4.94744149      -9.05090194      -3.36941632
N       -4.06714554      -8.38594574      -2.43981900
C       -3.85398917      -8.71884241      -1.13405026
C       -3.09611165      -7.69533750      -0.60830842
C       -2.89993755      -6.81178282      -1.68448032
N       -3.42277495      -7.26783285      -2.81911172
N       -2.26351695      -5.58300408      -1.70183478
S       -2.70468571      -4.46004969      -0.52438147
O       -4.14592186      -4.37183077      -0.43519416
O       -1.90336376      -4.73373920       0.65370056
C       -2.15137155      -2.91615938      -1.20830241
C       -1.32450456      -2.11288846      -0.40571919
C       -0.88125697      -0.88125697      -0.88125697
C       -1.24255878      -0.44263474      -2.15132886
C       -2.06837614      -1.23768651      -2.94822785
C       -2.53797138      -2.47241473      -2.47866988
H       -4.98438213     -10.11590744      -3.12935901
H       -4.56987724      -8.91022595      -4.38546390
H       -5.94001312      -8.60354171      -3.26961290
H       -4.27834597      -9.60770241      -0.68912008
H       -2.75693136      -7.59454717       0.41455057
H       -2.27836850      -5.20693147      -2.64618812
H       -1.03947167      -2.43924484       0.59349084
H       -0.89722600       0.51681400      -2.52791447
H       -2.34882979      -0.87665819      -3.93650885
C       -3.40688506      -3.19241089      -3.37320582
C       -4.13460027      -3.79540768      -4.12237966
Br      -5.31125421      -4.77040248      -5.33373041
C       -9.11850678       3.58763656       4.66161641
N       -8.45543666       2.66940397       3.76806965
C       -8.84109672       1.39496389       3.47082123
C       -7.80676988       0.85475888       2.73822882
C       -6.86190590       1.89176110       2.64253369
N       -7.28779180       3.02132022       3.20060749
N       -5.60224479       1.87650910       2.06960193
S       -4.56361178       0.62163607       2.50386902
O       -4.55525075       0.45660927       3.94108677
O       -4.85319501      -0.49937239       1.62957978
C       -2.96093981       1.25065710       2.06423642
C       -2.15640351       0.44924217       1.23746654
C       -0.88125697       0.88125697       0.88125697
C       -0.39964627       2.10722968       1.32964643
C       -1.19621184       2.90259829       2.15548037
C       -2.47552542       2.47540286       2.53812771
H      -10.19458083       3.40194424       4.63312351
H       -8.90811037       4.61242996       4.34502676
H       -8.72905043       3.41552871       5.66858860
H       -9.77185751       0.97652757       3.82678339
H       -7.73926308      -0.15388680       2.35155168
H       -5.18109459       2.79805186       2.15234163
H       -2.51658808      -0.51621161       0.88484920
H        0.59400746       2.44989667       1.05243726
H       -0.80174827       3.85556922       2.50467935
C       -3.19463738       3.36210152       3.41576287
C       -3.79689364       4.10471165       4.15078232
Br      -4.77069108       5.30544943       5.33924660
C        7.75061739      -2.41773597       7.19940640
N        7.03209039      -1.43321796       6.42760193
C        6.80568880      -0.13194598       6.76924706
C        5.92324124       0.35150423       5.82802056
C        5.69864094      -0.73431838       4.96324137
N        6.43235738      -1.79735618       5.28000595
N        4.84398923      -0.82576247       3.87860411
S        3.24506109      -0.34092361       4.10313216
O        2.71431644      -0.92122529       5.31740506
O        3.19414380       1.09192137       3.88117997
C        2.38980751      -1.12735322       2.75867260
C        1.59365820      -0.31434133       1.93511269
C        0.88125697      -0.88125697       0.88125697
C        0.95919656      -2.24753055       0.62979527
C        1.74616368      -3.05761923       1.45050759
C        2.45620251      -2.50643048       2.52642301
H        8.54165083      -1.92166357       7.76633418
H        8.18464021      -3.15824911       6.52267777
H        7.03913615      -2.89645979       7.87757180
H        7.24510233       0.31809597       7.64816210
H        5.48782880       1.34169234       5.79079150
H        4.93278305      -1.74501235       3.45369268
H        1.51662580       0.75548503       2.12408490
H        0.40692957      -2.69437048      -0.19297358
H        1.79021635      -4.12615854       1.24562194
C        3.20953775      -3.44020538       3.32275864
C        3.84045601      -4.22224186       3.98968974
Br       4.86059748      -5.48672871       5.06806091
