105
Properties=species:S:1:pos:R:3 pbc="F F F"
C        0.00000000       0.00000000       0.00000000
C        2.42194087       7.16112344      -7.78469544
N        1.43781651       6.38741083      -7.06768294
C        0.13254790       6.72130502      -6.85302892
C       -0.35050351       5.78294792      -5.96731316
C        0.73981817       4.92761555      -5.72876696
N        1.80581309       5.24676734      -6.45713908
N        0.83285420       3.84978680      -4.86571482
S        0.33495205       4.08222498      -3.27193983
O        0.90275008       5.30439017      -2.74580654
O       -1.09660217       3.85035384      -3.22965073
C        1.12478690       2.74958428      -2.40146215
C        0.31197139       1.92590463      -1.60523620
C        0.88125697       0.88125697      -0.88125697
C        2.24981406       0.63906749      -0.94764083
C        3.05966085       1.45994418      -1.73468546
C        2.50592704       2.52678025      -2.45634871
Br       3.73625232       3.57807874      -3.44797667
H        1.92753292       7.71881618      -8.58329948
H        3.17036099       6.48665354      -8.20855256
H        2.89069175       7.84776801      -7.07470798
H       -0.32058331       7.59380772      -7.30194405
H       -1.34350331       5.74171296      -5.53871832
H        1.75572564       3.43086766      -4.94489479
H       -0.75970143       2.10773101      -1.53719608
H        2.69853220      -0.17650995      -0.38630422
H        4.12992328       1.26243117      -1.76964239
C       -9.00604168      -5.09765189      -3.26406618
N       -8.32985279      -4.25496756      -2.30808993
C       -8.89063497      -3.27875780      -1.53748907
C       -7.83559352      -2.62647744      -0.93768662
C       -6.69247706      -3.29942177      -1.40430186
N       -6.99396445      -4.33979777      -2.17595729
N       -5.35730919      -3.01923526      -1.17181137
S       -4.83968608      -1.43350861      -1.41592217
O       -5.32951843      -0.93919396      -2.68423440
O       -5.09191374      -0.70404971      -0.18743896
C       -3.07974430      -1.60362266      -1.59246637
C       -2.26737710      -0.80721375      -0.76852137
C       -0.88125697      -0.88125697      -0.88125697
C       -0.29210169      -1.74660466      -1.79781603
C       -1.09828660      -2.53514374      -2.62086015
C       -2.49552327      -2.46059460      -2.53293813
Br      -3.45769548      -3.56165877      -3.74295350
H      -10.02844952      -5.27722682      -2.92397224
H       -8.46939492      -6.04595886      -3.35021331
H       -9.01056935      -4.57711900      -4.22547939
H       -9.95741004      -3.10738255      -1.51037586
H       -7.88905127      -1.77081182      -0.27706487
H       -4.77906587      -3.71103658      -1.64138564
H       -2.71397928      -0.11954900      -0.05169740
H        0.78933629      -1.80974150      -1.88792126
H       -0.62209005      -3.20122749      -3.33867929
C       -3.14578282       8.94411504       5.27786189
N       -2.18480205       8.26417298       4.44393524
C       -1.36678251       8.82997404       3.51012529
C       -0.77930222       7.77698849       2.84346686
C       -1.30191019       6.62910233       3.46518817
N       -2.09652710       6.92279256       4.49039985
N       -1.10178353       5.29647451       3.15009778
S       -1.31129736       4.83580871       1.54201080
O       -2.54765737       5.38054989       1.02473952
O       -0.05314193       5.07126249       0.85899799
C       -1.54712898       3.07795194       1.65075242
C       -0.72370107       2.26472751       0.85468364
C       -0.88125697       0.88125697       0.88125697
C       -1.84245023       0.29514257       1.69892958
C       -2.66491862       1.10240394       2.48696793
C       -2.53179456       2.49778222       2.45947921
Br      -3.74597067       3.46354311       3.55279396
H       -2.78030253       9.94923001       5.50011604
H       -3.27838989       8.38158871       6.20558849
H       -4.08962109       8.99510259       4.72844406
H       -1.30149119       9.90011482       3.37356245
H       -0.09056098       7.83574223       2.01062475
H       -1.61059173       4.71242540       3.80847096
H        0.02794055       2.70929990       0.20386632
H       -1.96769192      -0.78432502       1.72495957
H       -3.41777959       0.62896056       3.11525668
C        8.93859770      -3.13637550       5.29278655
N        8.26981848      -2.19442786       4.42866394
C        8.53323669      -0.86083227       4.31281289
C        7.52503287      -0.34970681       3.52501789
C        6.72257159      -1.46127939       3.21234971
N        7.21666306      -2.59758924       3.69546721
N        5.53632423      -1.51073786       2.50129373
S        4.31900397      -0.43012255       2.93999034
O        4.14174359      -0.43543812       4.37576508
O        4.56553660       0.80914297       2.22700877
C        2.85513152      -1.16721036       2.25349146
C        2.05327588      -0.36316675       1.42666959
C        0.88125697      -0.88125697       0.88125697
C        0.50167015      -2.19458883       1.14026340
C        1.29504614      -2.99338205       1.96586230
C        2.46898722      -2.48269782       2.53737096
Br       3.42075719      -3.67301880       3.66853175
H        9.98277961      -2.83750608       5.40936290
H        8.88317323      -4.13361356       4.84878030
H        8.42893843      -3.12428629       6.25994302
H        9.36671088      -0.39201401       4.81644357
H        7.38114053       0.68455491       3.24034234
H        5.21909243      -2.47448131       2.43791435
H        2.33330020       0.66903658       1.22096205
H       -0.41095840      -2.60429844       0.71498643
H        0.98006612      -4.01643000       2.16550071
