177
Properties=species:S:1:pos:R:3 pbc="F F F"
C        0.00000000       0.00000000       0.00000000
C        0.88221746       0.88221746      -0.88221746
C        0.61613549       0.98392417      -2.24483805
C        1.42323389       1.79531486      -3.05053458
C        2.49792652       2.51480268      -2.50914090
C        2.74271828       2.39299626      -1.13227608
C        1.94410667       1.58225245      -0.31959698
C        3.33267827       3.37494780      -3.35490795
C        3.28501172       3.41459355      -4.84768422
C        4.52044045       4.24708510      -5.21020820
H        4.29493540       4.88130006      -6.07651063
C        5.75344420       3.42985049      -5.54095511
C        5.72798418       2.45439297      -6.55195203
C        6.87169635       1.71162634      -6.84453661
Cl       6.82231501       0.51356145      -8.08144803
C        8.05681129       1.93159163      -6.14676157
C        8.09735134       2.91378292      -5.15837137
C        6.95772978       3.66972307      -4.87255971
O        7.10382105       4.62955285      -3.91093937
C        6.05099669       5.59843549      -3.88360683
C        6.27877414       6.72893655      -5.01573064
O        6.32508581       6.61842323      -6.23705104
N        6.48680548       7.94846950      -4.36791208
C        6.48536747       7.79415171      -2.99471364
C        6.70413954       8.78712696      -2.05886012
C        6.70611962       8.41700444      -0.71132105
C        6.49622427       7.07681937      -0.34239357
Br       6.51747846       6.60803394       1.49130902
C        6.27767060       6.08997348      -1.30398046
C        6.26193449       6.46427881      -2.64261038
N        4.67702425       5.06751119      -4.00299657
N        4.18879589       4.27490394      -2.84584233
H       -0.21326137       0.44711634      -2.69392255
H        1.19537470       1.87466009      -4.10909327
H        3.57064169       2.94275487      -0.68884715
H        2.16476499       1.51582919       0.74044960
H        2.37067632       3.93157460      -5.16605495
H        3.29080428       2.41091476      -5.28297887
H        4.81051188       2.27622809      -7.10464418
H        8.94696850       1.35216443      -6.36809601
H        9.01581306       3.10353265      -4.61118288
H        6.64172803       8.80230354      -4.87432892
H        6.87019665       9.81601708      -2.35295542
H        6.87070599       9.17372499       0.05031569
H        6.09854552       5.05233690      -1.03749616
C       -0.88221746      -0.88221746      -0.88221746
C       -2.15335423      -1.24541750      -0.44612598
C       -2.96121665      -2.05061730      -1.25724937
C       -2.51500665      -2.49803628      -2.50882717
C       -1.22904847      -2.11638633      -2.92255582
C       -0.41310397      -1.31497618      -2.11787595
C       -3.37052806      -3.33029996      -3.36170600
C       -4.65878830      -3.95452536      -2.93397584
C       -4.97713609      -4.91328819      -4.08730947
H       -6.05979028      -4.92909277      -4.26386304
C       -4.52236693      -6.34133823      -3.86054465
C       -4.93894352      -7.06494568      -2.73043998
C       -4.51207100      -8.37864363      -2.53714467
Cl      -5.02500386      -9.24996729      -1.14235334
C       -3.67553279      -8.99524347      -3.46438823
C       -3.27659079      -8.29258189      -4.60033294
C       -3.71392452      -6.98151503      -4.80457302
O       -3.29630786      -6.38638859      -5.96161683
C       -4.02204638      -5.20272595      -6.30826668
C       -5.41969629      -5.57425886      -7.02948617
O       -6.38383820      -6.19885327      -6.59786862
N       -5.36553657      -5.09690344      -8.34074704
C       -4.14043680      -4.51926694      -8.61452909
C       -3.73811583      -3.98721616      -9.82479463
C       -2.43587533      -3.48761422      -9.91095556
C       -1.58028520      -3.53848426      -8.79666774
Br       0.18144966      -2.86398943      -8.95166360
C       -2.00697396      -4.08056773      -7.58408286
C       -3.30766113      -4.56332694      -7.49783560
N       -4.28661869      -4.25681818      -5.20409514
N       -3.09760412      -3.55527908      -4.65665895
H       -2.53238666      -0.90884344       0.51345258
H       -3.95508454      -2.31487190      -0.90917163
H       -0.86107424      -2.45046853      -3.89070095
H        0.57404417      -1.04018324      -2.47400552
H       -5.43003876      -3.17701487      -2.86125224
H       -4.56889080      -4.45203276      -1.96377435
H       -5.59351389      -6.59557655      -2.00229370
H       -3.33732028     -10.01520072      -3.31470795
H       -2.63160708      -8.76186519      -5.33705632
H       -6.13277161      -5.20522620      -8.98036268
H       -4.40266484      -3.95721767     -10.67928664
H       -2.08913377      -3.05841660     -10.84656492
H       -1.36554811      -4.11464760      -6.70818287
C       -0.88221746       0.88221746       0.88221746
C       -0.57523616       1.03868163       2.23097992
C       -1.38252586       1.85002007       3.03653740
C       -2.49813075       2.51516377       2.50857558
C       -2.78363133       2.33883723       1.14552206
C       -1.98506965       1.52763042       0.33325603
C       -3.33338174       3.37565379       3.35349849
C       -3.23820721       3.46737911       4.84170317
C       -4.48858461       4.27075198       5.21839716
H       -4.25643134       4.94099268       6.05532207
C       -5.68170263       3.42523443       5.61731274
C       -5.59011048       2.48593821       6.65828049
C       -6.69780863       1.71643854       7.01361214
Cl      -6.56738074       0.56321788       8.28672586
C       -7.91191685       1.87370033       6.34954730
C       -8.01805976       2.81999453       5.33145134
C       -6.91467199       3.60274850       4.98259208
O       -7.12461446       4.52415486       3.99554395
C       -6.10667223       5.52552624       3.90084054
C       -6.33539932       6.68565575       5.00238626
O       -6.33790553       6.61511553       6.22753902
N       -6.60572926       7.87507644       4.32238135
C       -6.64405230       7.67446539       2.95571513
C       -6.92687338       8.62747211       1.99578113
C       -6.96046055       8.21205319       0.66193138
C       -6.71749093       6.86773711       0.33020917
Br      -6.78291582       6.33666654      -1.48537899
C       -6.43425258       5.92171740       1.31565455
C       -6.38735820       6.34146338       2.64000209
N       -4.71233183       5.04424733       3.99095286
N       -4.23570800       4.22932091       2.84451324
H        0.28613379       0.54485240       2.66905891
H       -1.12292863       1.97259648       4.08360295
H       -3.64378285       2.84584268       0.71261818
H       -2.23796045       1.41814712      -0.71596298
H       -2.33196834       4.02452334       5.11181420
H       -3.19573721       2.47936943       5.30959127
H       -4.64951636       2.35674822       7.18511957
H       -8.77420838       1.27325185       6.61976872
H       -8.95985428       2.96091051       4.80976379
H       -6.77280969       8.74003961       4.80551119
H       -7.11796106       9.65974054       2.26146754
H       -7.17544651       8.93674372      -0.11807494
H       -6.22891065       4.88207556       1.07739238
C        0.88221746      -0.88221746       0.88221746
C        2.14168842      -1.26977765       0.43343163
C        2.94963540      -2.07493182       1.24451611
C        2.51515820      -2.49812724       2.50858466
C        1.24080888      -2.09222467       2.93495708
C        0.42482037      -1.29065204       2.13048369
C        3.37097099      -3.33043307       3.36112996
C        4.64398577      -3.97909308       2.92421065
C        4.96525867      -4.92590169       4.08657339
H        6.05000483      -4.95475428       4.24798698
C        4.48710267      -6.35033999       3.88680714
C        4.87711485      -7.09578697       2.76142736
C        4.42894987      -8.40582321       2.59308623
Cl       4.90940498      -9.30408853       1.20383097
C        3.59716941      -8.99715114       3.54084394
C        3.22457551      -8.27281638       4.67211374
C        3.68331953      -6.96540597       4.85128707
O        3.29083507      -6.34801746       6.00546076
C        4.03816666      -5.17011141       6.32476093
C        5.44063074      -5.55143177       7.03137881
O        6.38953206      -6.19586009       6.59516794
N        5.41207675      -5.05482723       8.33628308
C        4.19933855      -4.45583387       8.61906040
C        3.82201796      -3.90097424       9.82713442
C        2.52835470      -3.38154837       9.92454205
C        1.65621257      -3.43589731       8.82332733
Br      -0.09338623      -2.73403916       8.99355044
C        2.05772060      -4.00117046       7.61273349
C        3.35006811      -4.50373595       7.51501961
N        4.30021939      -4.24383220       5.20348043
N        3.11351755      -3.53310876       4.66291585
H        2.51162638      -0.95230477      -0.53615363
H        3.93455925      -2.35833766       0.88623116
H        0.88208521      -2.40724373       3.91291477
H       -0.55312023      -0.99669251       2.49657231
H        5.42504475      -3.21384889       2.82941223
H        4.53312548      -4.48894664       1.96262579
H        5.52773947      -6.64622664       2.01741803
H        3.24243244     -10.01416234       3.41063417
H        2.58366002      -8.72230713       5.42456143
H        6.18680927      -5.16509121       8.96646001
H        4.49913056      -3.86842734      10.67161124
H        2.20120057      -2.93420861      10.85870612
H        1.40336116      -4.03843321       6.74658422
