170
Properties=species:S:1:pos:R:3 pbc="F F F"
C        5.22880646       4.91021959      -3.66087903
O        4.17780265       4.15695603      -4.25681344
C        3.41344439       3.40215011      -3.40599110
C        3.22204196       3.71502971      -2.05428302
C        2.41386979       2.90977408      -1.24768242
C        1.79141814       1.79141814      -1.79141814
C        1.96566932       1.47376679      -3.13611753
C        2.76772717       2.28267286      -3.96310449
C        2.95003889       1.89793351      -5.41652818
N        1.69653579       1.89089304      -6.17435735
C        1.07459136       3.18779632      -6.41411991
C        1.13781726       0.65924438      -6.50416243
O        1.60375895      -0.42147317      -6.14669251
C       -0.11229086       0.60884097      -7.28382622
C       -1.26505657       0.17933628      -6.61056153
C       -2.46928636       0.04872637      -7.30233554
C       -2.52353844       0.33957869      -8.66468906
C       -1.37172995       0.74951745      -9.34176757
C       -0.15794340       0.87233171      -8.65686105
H        5.87289336       5.27689382      -4.46611318
H        5.84222241       4.28844599      -2.99931843
H        4.83357537       5.78196271      -3.13036244
H        3.67950464       4.58972773      -1.60317079
H        2.27659380       3.16574659      -0.20030467
H        1.48525558       0.59075559      -3.55367750
H        3.42937038       0.91182714      -5.44925480
H        3.63272931       2.57357588      -5.94203949
H        0.69738418       3.57797073      -5.46532229
H        0.24042140       3.13253590      -7.11283911
H        1.82546403       3.87262696      -6.81749892
H       -1.21659977      -0.07181323      -5.55297725
H       -3.36046616      -0.29428181      -6.78190696
H       -3.46048032       0.22963006      -9.20623858
H       -1.42821134       0.95217023     -10.40893507
C        1.00589424       1.24556857      -9.41829140
C        1.98060827       1.55815444     -10.05598932
Br       3.55663842       2.06357936     -11.08709292
C       -3.64709027      -5.15262079      -5.00019403
O       -4.25529022      -4.18373367      -4.15254822
C       -3.40533770      -3.41363665      -3.40261126
C       -2.08790876      -3.12390211      -3.77954382
C       -1.28147810      -2.31565907      -2.97418912
C       -1.79141814      -1.79141814      -1.79141814
C       -3.10254782      -2.06390929      -1.40909652
C       -3.92986118      -2.86707737      -2.21656596
C       -5.34485389      -3.15793998      -1.76170671
N       -6.17072922      -1.95467422      -1.63638274
C       -6.52288503      -1.27574732      -2.87787525
C       -6.45704721      -1.48751188      -0.35666498
O       -6.00942490      -1.99163873       0.67208534
C       -7.30188354      -0.29140017      -0.18709262
C       -6.67045367       0.87354466       0.27206778
C       -7.42027880       2.02467099       0.51383227
C       -8.79853243       2.01333642       0.30446669
C       -9.43264126       0.84800712      -0.13492093
C       -8.68864978      -0.31349802      -0.36910156
H       -4.43509847      -5.82212045      -5.35868144
H       -2.91564335      -5.75942179      -4.45492170
H       -3.19319254      -4.67743363      -5.87527435
H       -1.66498267      -3.50309857      -4.70432192
H       -0.26084988      -2.10138488      -3.28041029
H       -3.49283776      -1.66029474      -0.47655616
H       -5.29102185      -3.69350162      -0.80592884
H       -5.87047898      -3.83158210      -2.44628359
H       -5.62216819      -0.82068000      -3.29782901
H       -7.26318223      -0.48956144      -2.73305273
H       -6.92348249      -2.00947646      -3.58263096
H       -5.59864224       0.87458610       0.45949188
H       -6.93153248       2.92464098       0.87973250
H       -9.38473621       2.90828986       0.50105803
H      -10.51154299       0.85163753      -0.27298850
C       -9.40393400      -1.49796626      -0.76785396
C      -10.00298452      -2.48995842      -1.10180909
Br     -10.97159856      -4.09392583      -1.64178630
C       -5.46550622       4.52064552       3.81375334
O       -4.15628575       4.17865745       4.25662891
C       -3.41202814       3.40084687       3.40871059
C       -3.58809952       3.38391693       2.01933824
C       -2.78036502       2.57890608       1.21205520
C       -1.79141814       1.79141814       1.79141814
C       -1.59934579       1.80551754       3.17069031
C       -2.39810356       2.62051759       3.99488337
C       -2.17405169       2.59790344       5.49254545
N       -0.83461893       3.04360959       5.88355766
C       -0.53572610       4.45679516       5.68398634
C        0.08001914       2.08060522       6.30063798
O       -0.15178566       0.87267793       6.30451469
C        1.43196492       2.49036324       6.72197801
C        2.49448744       2.14488961       5.87443906
C        3.80606240       2.44675286       6.24108509
C        4.05928923       3.08636874       7.45364980
C        3.00353182       3.41456016       8.30852672
C        1.68636136       3.10517586       7.95243486
H       -6.00466770       4.94475822       4.66647444
H       -6.01773780       3.63684441       3.47540462
H       -5.42708113       5.28615834       3.03266105
H       -4.33912190       3.99910402       1.53417724
H       -2.93072655       2.57631649       0.13560200
H       -0.83133634       1.17844125       3.61991107
H       -2.36357269       1.57794906       5.84893055
H       -2.88693817       3.23309617       6.02831033
H       -0.47440300       4.65538592       4.61088828
H        0.40838328       4.75618051       6.13799917
H       -1.34024392       5.05502991       6.12031607
H        2.29851479       1.62312838       4.93995066
H        4.63033885       2.16933787       5.58815998
H        5.08259100       3.31423254       7.74374678
H        3.22163412       3.89467069       9.25985740
C        0.64597500       3.41819307       8.89753616
C       -0.22534857       3.68034497       9.68905849
Br      -1.63420509       4.10422244      10.96888316
C        4.39580737      -3.89240098       5.51169674
O        4.18644450      -4.25441154       4.15071607
C        3.40064998      -3.40954715       3.41138847
C        3.26133008      -2.04336336       3.68666124
C        2.45633905      -1.23587861       2.87910863
C        1.79141814      -1.79141814       1.79141814
C        1.92829666      -3.14650480       1.50075218
C        2.74520927      -3.96936306       2.29893218
C        2.85726547      -5.44231342       1.96492169
N        3.42914410      -5.69279999       0.63984209
C        4.84023448      -5.36750530       0.46876782
C        2.57148948      -6.10569070      -0.37595612
O        1.35393083      -6.21612919      -0.24108173
C        3.11093596      -6.38796961      -1.71852923
C        2.77826453      -5.48676970      -2.74019301
C        3.20317593      -5.72574378      -4.04714416
C        3.95325984      -6.86454192      -4.33707244
C        4.26982275      -7.77376675      -3.32403444
C        3.83785762      -7.54627686      -2.01288512
H        4.84532649      -4.75171286       6.01886101
H        3.45007187      -3.66418752       6.01572745
H        5.09806216      -3.05685156       5.59098680
H        3.77977340      -1.57530231       4.51732745
H        2.35784415      -0.17772212       3.10707878
H        1.39643921      -3.57836292       0.65488653
H        1.85749215      -5.88613919       2.04682097
H        3.47893444      -5.98478490       2.68462533
H        4.95749106      -4.28127750       0.50190863
H        5.24271486      -5.72251261      -0.47943106
H        5.41061673      -5.82104942       1.28392375
H        2.17147623      -4.61130282      -2.51821480
H        2.93610789      -5.03185095      -4.84079984
H        4.27748970      -7.05556412      -5.35766550
H        4.83814837      -8.66727676      -3.57253118
C        4.14757639      -8.54509914      -1.02292131
C        4.40696586      -9.38161280      -0.19382663
Br       4.82637670     -10.73418464       1.14674936
C       -0.00445707       0.01189536      -1.78238275
H       -0.66409135       0.67374010      -2.43557963
H        0.65740317      -0.63156657      -2.45157240
C       -0.90989263      -0.90692880      -0.91072765
C        0.90977584       0.90977584      -0.90977584
C       -0.00465871       1.77757030       0.00794375
H       -0.66225468       2.44313916      -0.64384735
H        0.64322798       2.43503045       0.67728295
C       -1.78241447       0.00034974      -0.00472694
H       -2.45427497      -0.65498947       0.64260836
H       -2.43311707       0.67328779      -0.65473579
C       -0.91132561       0.90220522       0.91563759
C       -0.01476271      -0.02253852       1.78660255
H       -0.67934791      -0.69751639       2.42135241
H        0.63392994       0.61504881       2.47327442
C        0.01484550      -1.77751727      -0.01636693
H        0.67870853      -2.42144646      -0.68295456
H       -0.62264859      -2.45592969       0.64226336
C        1.78714474       0.01002794       0.00389507
H        2.44202412       0.67113390       0.66197326
H        2.45385902      -0.65136977      -0.64189061
C        0.91606151      -0.90478549       0.90901405
