57
Properties=species:S:1:pos:R:3 pbc="F F F"
C        0.00000000       0.00000000       0.00000000
N        0.51255419       2.83018297      -4.01861199
C        1.10620812       2.20205440      -2.91787941
C        0.33418005       1.41559144      -2.05744852
C        0.88572944       0.88572944      -0.88572944
C        2.20557575       1.17549129      -0.53989448
O        2.73699101       0.65115164       0.60837717
C        2.96044654       2.01134255      -1.36548263
Br       4.74635019       2.46493919      -0.91438405
C        2.40751679       2.53833330      -2.53573047
H        1.16607440       3.11374197      -4.74260400
H       -0.28723931       2.33374160      -4.40113064
H       -0.70554635       1.21182102      -2.30219812
H        3.65061742       0.97838384       0.69209977
H        2.99230866       3.21398908      -3.15441003
N       -4.46666457      -1.82230759      -1.07237699
C       -3.08934538      -1.81634894      -1.32044762
C       -2.24359252      -0.99686836      -0.56675913
C       -0.88572944      -0.88572944      -0.88572944
C       -0.36893720      -1.56005248      -1.99197185
O        0.96176995      -1.44609380      -2.29544164
C       -1.22377133      -2.33011615      -2.78338424
Br      -0.57323811      -3.23233261      -4.32010273
C       -2.57930692      -2.44030991      -2.46196373
H       -4.95376913      -2.63873491      -1.42991633
H       -4.71798761      -1.62098521      -0.10866010
H       -2.64474041      -0.44128661       0.27755422
H        1.12992015      -1.96324231      -3.10357933
H       -3.24273186      -3.01531286      -3.10266305
N       -1.07144466       1.82350477       4.46639972
C       -1.41883090       1.69001715       3.11729388
C       -0.62240380       0.92541628       2.25939993
C       -0.88572944       0.88572944       0.88572944
C       -1.92342589       1.64807081       0.34946482
O       -2.17430304       1.60164518      -0.99618273
C       -2.68155073       2.46087830       1.19484269
Br      -4.07656091       3.54505923       0.50405329
C       -2.41716539       2.49783445       2.56658071
H       -1.83376872       2.12015704       5.06849462
H       -0.57213153       1.02585185       4.84964954
H        0.20949290       0.35389057       2.66407512
H       -2.91187171       2.20940981      -1.18438002
H       -2.99132269       3.15828255       3.21110254
N        4.33521380      -2.23731333       0.78882203
C        3.00915147      -2.03113804       1.18585244
C        2.17202014      -1.20104422       0.43415565
C        0.88572944      -0.88572944       0.88572944
C        0.43994974      -1.36264816       2.11836362
O       -0.82119923      -1.04968297       2.55128174
C        1.29626140      -2.14096648       2.90004385
Br       0.74725979      -2.77789667       4.60051698
C        2.58005545      -2.45533020       2.44619492
H        4.76943710      -3.06349421       1.18948906
H        4.48453408      -2.17756002      -0.21446118
H        2.52342645      -0.79754808      -0.51250174
H       -0.94316529      -1.44853002       3.43153677
H        3.25046709      -3.03411230       3.07612838
