137
Properties=species:S:1:pos:R:3 pbc="F F F"
C        0.00000000       0.00000000       0.00000000
C        3.15156551       4.67379635      -3.22694131
O        3.23445216       3.25897662      -3.36701683
C        2.46049486       2.51453693      -2.51627019
C        2.02670379       2.96896876      -1.26485737
C        1.23247442       2.15694523      -0.45117873
C        0.88226279       0.88226279      -0.88226279
C        1.32742392       0.40881246      -2.11339605
C        2.12386983       1.21745334      -2.94573457
C        2.57031353       0.67250588      -4.28747899
N        3.81112132      -0.09896967      -4.22187792
C        5.05418789       0.65535732      -4.26250732
C        3.72430246      -1.48242409      -4.00398766
O        2.61785210      -2.02547312      -3.93664207
C        4.92985919      -2.29678603      -3.86406204
C        5.03454135      -3.66293227      -3.64318591
C        6.41409061      -3.97904101      -3.61596417
C        7.07546597      -2.79254131      -3.81503363
O        6.18984481      -1.77372108      -3.95631598
H        3.66003549       5.12161314      -4.08547577
H        3.66923335       5.01058841      -2.32305558
H        2.11142140       5.01433605      -3.23876729
H        2.29877656       3.95063349      -0.88945904
H        0.89693483       2.52807811       0.51403902
H        1.05011224      -0.59200330      -2.43907186
H        2.69024452       1.47650713      -5.02420240
H        1.76638277       0.04590890      -4.69578944
H        4.87408276       1.69607006      -4.54211205
H        5.71515935       0.23348244      -5.02369661
H        5.53052864       0.62245119      -3.27850906
H        4.19785945      -4.33905708      -3.52668148
H        6.86303516      -4.95238895      -3.47397382
C        8.50601580      -2.63888064      -3.87432587
C        9.70410129      -2.51018982      -3.92398313
Br      11.64130419      -2.30210766      -4.00427471
C       -3.26458395      -4.67106422      -3.11665499
O       -3.22679333      -3.26915414      -3.36449814
C       -2.46067501      -2.51857207      -2.51205491
C       -2.15501289      -2.90436063      -1.20115640
C       -1.36080247      -2.09092408      -0.38887183
C       -0.88226279      -0.88226279      -0.88226279
C       -1.19921434      -0.47516443      -2.17525366
C       -1.99401885      -1.28652955      -3.00650933
C       -2.29869901      -0.81685297      -4.41474643
N       -3.47719760       0.04492024      -4.50175221
C       -4.76901180      -0.61859486      -4.58444588
C       -3.29893547       1.43125089      -4.37818145
O       -2.16133540       1.89662008      -4.26430573
C       -4.44440879       2.33890802      -4.39163442
C       -4.45812845       3.72208139      -4.27874793
C       -5.80725118       4.13808621      -4.38184880
C       -6.54285613       2.99052864      -4.54563080
O       -5.73132414       1.90255246      -4.54366803
H       -3.74306954      -5.14646524      -3.97758963
H       -3.87077086      -4.89825412      -2.23385237
H       -2.25596169      -5.08566879      -3.02289427
H       -2.52903384      -3.83163197      -0.77820329
H       -1.12569973      -2.40906468       0.62379050
H       -0.82208227       0.47464102      -2.54973955
H       -2.42734922      -1.66498861      -5.09861622
H       -1.42107978      -0.28358969      -4.80341164
H       -4.65073180      -1.68818636      -4.77334671
H       -5.33848451      -0.21063491      -5.42321898
H       -5.31111730      -0.47492301      -3.64544857
H       -3.58196517       4.34306961      -4.14658829
H       -6.18816268       5.14938674      -4.34584409
C       -7.97300454       2.93636570      -4.70482220
C       -9.17075383       2.89100424      -4.83814500
Br     -11.10741313       2.81765859      -5.05371669
C       -4.17209965       2.69348540       4.18671811
O       -3.34237717       3.31060203       3.20746641
C       -2.53370857       2.47799976       2.47959365
C       -2.09530726       1.22899681       2.93622585
C       -1.27621590       0.42831408       2.13606839
C       -0.88226279       0.88226279       0.88226279
C       -1.29066565       2.13261041       0.42635637
C       -2.11986535       2.94782780       1.21936459
C       -2.55941336       4.29317675       0.67770829
N       -1.61065240       5.37211200       0.95126517
C       -1.70543586       6.01297454       2.25364214
C       -0.60797171       5.63296310       0.00493123
O       -0.58352597       5.00002961      -1.05453454
C        0.40810991       6.65433729       0.25090782
C        1.46552139       7.04091337      -0.56059698
C        2.14408911       8.08951518       0.10558771
C        1.47075854       8.28233538       1.28638145
O        0.43006204       7.41668861       1.38581313
H       -4.88581245       3.44473487       4.53657708
H       -3.58465403       2.36726708       5.05095624
H       -4.74265718       1.86336180       3.75850577
H       -2.36767969       0.85344184       3.91774756
H       -0.95151186      -0.54256765       2.50202970
H       -0.97322504       2.47926250      -0.55530675
H       -3.54395267       4.57795015       1.06905123
H       -2.71256098       4.20120103      -0.40568091
H       -2.62186890       5.71939435       2.77100162
H       -1.74759016       7.09763333       2.12711492
H       -0.84082784       5.72992003       2.86074100
H        1.69850806       6.60884400      -1.52485209
H        3.01120308       8.63545790      -0.23963478
C        1.80728244       9.26531639       2.28342709
C        2.08912120      10.08856298       3.11845281
Br       2.54483064      11.41968310       4.46861878
C        4.35944956      -2.71875550       3.97409810
O        3.32698288      -3.32808694       3.20537579
C        2.53291639      -2.48580072       2.47258487
C        2.32461333      -1.13951968       2.79639692
C        1.50593481      -0.33612738       1.99853619
C        0.88226279      -0.88226279       0.88226279
C        1.06105301      -2.22546468       0.56311474
C        1.88680684      -3.04547266       1.35477824
C        2.07195395      -4.49715083       0.96119363
N        1.04469385      -5.38578035       1.50355538
C        1.24449021      -5.86533856       2.86222377
C       -0.10819810      -5.61641261       0.73765152
O       -0.20505353      -5.12430621      -0.39023163
C       -1.19829426      -6.44232325       1.25310621
C       -2.40130192      -6.77162360       0.64447330
C       -3.10313331      -7.62008865       1.53405843
C       -2.29672163      -7.75813785       2.63654207
O       -1.15236629      -7.04536037       2.47944562
H        5.01620443      -3.51490296       4.33601702
H        3.94776009      -2.20587270       4.84924455
H        4.96205465      -2.03943748       3.36303262
H        2.78000723      -0.68699375       3.67186811
H        1.36137846       0.70944160       2.25903705
H        0.56501781      -2.64316272      -0.31099974
H        3.05897226      -4.86906980       1.26291200
H        2.07822625      -4.56458940      -0.13473455
H        2.25520844      -5.64393532       3.21312112
H        1.13180743      -6.95202274       2.88850822
H        0.51838143      -5.38723966       3.52586779
H       -2.71436775      -6.43482133      -0.33496973
H       -4.07233251      -8.07474540       1.38220714
C       -2.60704035      -8.54985527       3.79864612
C       -2.86693228      -9.21291860       4.77190827
Br      -3.28715554     -10.28503593       6.34559084
