150
Properties=species:S:1:pos:R:3 pbc="F F F"
C        4.06146953       5.58370037      -4.13684533
O        4.14435619       4.16888064      -4.27692086
C        3.37039888       3.42444095      -3.42617422
C        2.93660781       3.87887279      -2.17476139
C        2.14237845       3.06684925      -1.36108275
C        1.79216681       1.79216681      -1.79216681
C        2.23732794       1.31871649      -3.02330007
C        3.03377386       2.12735736      -3.85563859
C        3.48021756       1.58240990      -5.19738301
N        4.72102535       0.81093435      -5.13178195
C        5.96409192       1.56526134      -5.17241135
C        4.63420649      -0.57252007      -4.91389168
O        3.52775612      -1.11556910      -4.84654609
C        5.83976321      -1.38688201      -4.77396607
C        5.94444537      -2.75302825      -4.55308994
C        7.32399464      -3.06913699      -4.52586820
C        7.98536999      -1.88263729      -4.72493766
Br       9.83899862      -1.68353215      -4.80176532
O        7.09974884      -0.86381706      -4.86622000
H        4.56993951       6.03151717      -4.99537980
H        4.57913738       5.92049244      -3.23295961
H        3.02132543       5.92424007      -4.14867132
H        3.20868058       4.86053752      -1.79936307
H        1.80683885       3.43798213      -0.39586500
H        1.96001626       0.31790073      -3.34897588
H        3.60014855       2.38641115      -5.93410643
H        2.67628679       0.95581292      -5.60569347
H        5.78398679       2.60597409      -5.45201607
H        6.62506337       1.14338646      -5.93360064
H        6.44043266       1.53235521      -4.18841308
H        5.10776347      -3.42915306      -4.43658551
H        7.77293919      -4.04248492      -4.38387784
C       -4.62284916      -5.43714877      -3.72201731
O       -4.11835500      -4.21669525      -4.25510744
C       -3.37616151      -3.43952199      -3.40533055
C       -3.49981985      -3.47930917      -2.01111298
C       -2.70398238      -2.66190573      -1.20442234
C       -1.79216681      -1.79216681      -1.79216681
C       -1.67671456      -1.72477147      -3.17785848
C       -2.46824245      -2.54571855      -4.00280882
C       -2.29710110      -2.45697294      -5.50593644
N       -3.11778092      -1.41824457      -6.12771616
C       -4.49497103      -1.76953951      -6.43725407
C       -2.57061971      -0.13407988      -6.27087851
O       -1.40214513       0.07693015      -5.93351814
C       -3.36355695       0.96158140      -6.82487172
C       -2.99324620       2.28266650      -7.03392736
C       -4.10039561       2.94083822      -7.62116845
C       -5.08571549       1.99142773      -7.73338260
Br      -6.78138508       2.28047490      -8.45632161
O       -4.65360145       0.79970318      -7.24825351
H       -5.01474919      -6.02567644      -4.55641085
H       -5.45070652      -5.25174384      -3.03013907
H       -3.82944932      -6.02049960      -3.24428790
H       -4.21570739      -4.13190303      -1.52097074
H       -2.80639499      -2.71110092      -0.12319007
H       -0.96214233      -1.03763641      -3.62711412
H       -2.51378019      -3.41779051      -5.98909543
H       -1.23747429      -2.27302384      -5.72729505
H       -4.65856215      -2.84523547      -6.33817933
H       -4.71555725      -1.51068032      -7.47581291
H       -5.16641219      -1.23744531      -5.75734346
H       -2.02574682       2.70217876      -6.79162787
H       -4.16369290       3.97608944      -7.92672864
C       -5.48743729       3.77664477       4.51793318
O       -4.20823080       4.26078608       4.12114080
C       -3.43755799       3.40920978       3.37424629
C       -3.56752632       2.01539089       3.40732478
C       -2.75084613       1.20738334       2.61208098
C       -1.79216681       1.79216681       1.79216681
C       -1.63571492       3.17526799       1.76836160
C       -2.45457314       4.00194515       2.56025153
C       -2.26639248       5.50399617       2.48962183
N       -1.24639592       6.00947603       3.40786969
C       -1.66474000       6.25843097       4.77859364
C        0.07588308       6.10366395       2.94779723
O        0.33968180       5.82346391       1.77495101
C        1.15033251       6.53966966       3.83751012
C        2.50216292       6.68670973       3.55996024
C        3.12294917       7.16477429       4.73890072
C        2.12171122       7.27799420       5.67138738
Br       2.34574239       7.87964033       7.42333384
O        0.93292236       6.89527897       5.13979517
H       -6.04903113       4.62176011       4.92604524
H       -5.39580032       3.02666992       5.31011919
H       -6.04694834       3.38439663       3.66289185
H       -4.29176119       1.52577607       4.05104391
H       -2.87031932       0.12722901       2.64313765
H       -0.87957160       3.62189704       1.12542423
H       -3.20864914       6.03299948       2.67901751
H       -2.00332556       5.77568400       1.45878362
H       -2.75257535       6.21775295       4.87164865
H       -1.35924543       7.26375033       5.07905472
H       -1.21715620       5.50781676       5.43622799
H        2.96666131       6.47619146       2.60566578
H        4.16843433       7.40027804       4.88248840
C        5.38412773      -3.68142795       4.71645955
O        4.22407970      -4.24947047       4.11660751
C        3.44097018      -3.40187512       3.37816875
C        3.39577732      -2.01666025       3.57780442
C        2.57782902      -1.21114850       2.78133292
C        1.79216681      -1.79216681       1.79216681
C        1.80891920      -3.17080967       1.59961562
C        2.63165493      -3.99409609       2.39101879
C        2.63667550      -5.48783123       2.13550375
N        1.59234537      -6.20904835       2.86234792
C        1.88676133      -6.57631692       4.23868636
C        0.34914993      -6.38932141       2.23710676
O        0.18194177      -5.99857616       1.07821519
C       -0.75427425      -7.04442359       2.93669792
C       -2.03998053      -7.30228571       2.48220188
C       -2.72206081      -7.98492380       3.51786286
C       -1.82156909      -8.10166076       4.54757868
Br      -2.15929467      -8.93301502       6.18351143
O       -0.63768295      -7.53037081       4.20946391
H        5.99691345      -4.50404444       5.09587858
H        5.11642080      -3.04796230       5.56820632
H        5.98108217      -3.12956853       3.98358612
H        3.98084019      -1.53349324       4.35424774
H        2.56072001      -0.13628881       2.94367717
H        1.18705279      -3.61512249       0.82471759
H        3.61022850      -5.93063570       2.37980193
H        2.52203412      -5.65880571       1.05695335
H        2.94497748      -6.42954313       4.46745634
H        1.67526799      -7.63791309       4.38886939
H        1.28238979      -5.96442927       4.91438190
H       -2.42041226      -7.02868532       1.50692286
H       -3.74041969      -8.34815504       3.50659676
C       -0.00445707       0.01189536      -1.78238275
H       -0.66409135       0.67374010      -2.43557963
H        0.65740317      -0.63156657      -2.45157240
C       -0.90989263      -0.90692880      -0.91072765
C        0.90977584       0.90977584      -0.90977584
C       -0.00465871       1.77757030       0.00794375
H       -0.66225468       2.44313916      -0.64384735
H        0.64322798       2.43503045       0.67728295
C       -1.78241447       0.00034974      -0.00472694
H       -2.45427497      -0.65498947       0.64260836
H       -2.43311707       0.67328779      -0.65473579
C       -0.91132561       0.90220522       0.91563759
C       -0.01476271      -0.02253852       1.78660255
H       -0.67934791      -0.69751639       2.42135241
H        0.63392994       0.61504881       2.47327442
C        0.01484550      -1.77751727      -0.01636693
H        0.67870853      -2.42144646      -0.68295456
H       -0.62264859      -2.45592969       0.64226336
C        1.78714474       0.01002794       0.00389507
H        2.44202412       0.67113390       0.66197326
H        2.45385902      -0.65136977      -0.64189061
C        0.91606151      -0.90478549       0.90901405
