165
Properties=species:S:1:pos:R:3 pbc="F F F"
C        0.00000000       0.00000000       0.00000000
C        0.88205816       0.88205816      -0.88205816
C        1.01302115       0.59038672      -2.23484172
C        1.81938750       1.39762287      -3.03189901
C        2.48758988       2.49445696      -2.47717253
C        2.36195673       2.81228489      -1.11274159
C        1.54898632       1.97475805      -0.32177309
C        3.07639330       3.99966929      -0.47494861
C        2.12165522       4.96175624       0.24011375
N        4.11016763       3.53692955       0.42560892
C        5.36112607       3.98996938       0.08437193
O        6.36708347       3.73755629       0.72427513
N        5.25804217       4.75184785      -1.03547159
C        6.36924252       5.41524098      -1.68584670
C        7.07605567       4.52069339      -2.68635067
C        6.34117544       4.06059838      -3.80172970
C        6.96221305       3.24133751      -4.71996563
O        6.38439940       2.71223211      -5.83045194
C        7.49200223       1.97193293      -6.38537409
O        8.69892955       2.07631474      -5.60120909
C        8.27741950       2.87846919      -4.58776317
C        9.04376320       3.31406868      -3.53078257
C        8.43764341       4.14153951      -2.57282977
C        3.95303980       4.84108390      -1.42958640
O        3.54065857       5.50210045      -2.37498461
H        0.49573761      -0.25705948      -2.67670054
H        1.92993774       1.17742870      -4.09136405
H        3.10084717       3.09377874      -3.14725422
H        1.43159587       2.17265538       0.74151391
H        2.65551964       5.83827877       0.62776647
H        1.62385599       4.48950930       1.09387797
H        1.34677376       5.32729816      -0.44357691
H        3.97956073       2.91725541       1.21327588
H        7.03858936       5.78023449      -0.90410996
H        5.99814656       6.29934940      -2.21866773
H        5.30431119       4.34296351      -3.95633781
H        7.69474944       2.34922493      -7.39427100
H        7.20871642       0.91528946      -6.45467664
H       10.08509199       3.01973846      -3.45552045
C        9.28268862       4.58655433      -1.49511904
C        9.99041398       4.95925424      -0.59253630
Br      11.13474602       5.56187848       0.86686364
C       -0.88205816      -0.88205816      -0.88205816
C       -0.31097501      -1.92449036      -1.60278421
C       -1.12062049      -2.72299725      -2.40529164
C       -2.49644975      -2.48108919      -2.48168043
C       -3.09578715      -1.43714373      -1.75405234
C       -2.25525118      -0.63398941      -0.95627688
C       -4.59178471      -1.14485299      -1.81437351
C       -5.26040747      -1.14742473      -0.43546551
N       -4.82984775       0.10746216      -2.49910268
C       -5.62370766      -0.03170670      -3.61130915
O       -5.96579908       0.90166967      -4.31623522
N       -5.95220982      -1.34234014      -3.75081166
C       -6.79345287      -1.87337606      -4.80350127
C       -6.01073006      -2.21540548      -6.05696418
C       -5.01833394      -3.21694526      -5.96822432
C       -4.29072927      -3.53899108      -7.09379584
O       -3.30002702      -4.46695301      -7.16010342
C       -2.92946729      -4.36842840      -8.55141356
O       -3.70295785      -3.39265536      -9.28084017
C       -4.51887904      -2.92623684      -8.29853600
C       -5.48618642      -1.95809563      -8.44433240
C       -6.23755111      -1.60024178      -7.31421980
C       -5.41634899      -2.07646695      -2.73089416
O       -5.58270841      -3.27770726      -2.55732797
H        0.75600453      -2.12334677      -1.54803642
H       -0.68372350      -3.54045399      -2.97455300
H       -3.08209398      -3.13896405      -3.12082211
H       -2.67088114       0.19366692      -0.38552311
H       -6.34481456      -1.00314870      -0.51806868
H       -4.88120954      -0.34609022       0.20781244
H       -5.09608260      -2.10102225       0.07945603
H       -4.44592439       1.00711195      -2.24472781
H       -7.58651232      -1.14632857      -4.99009293
H       -7.28373431      -2.78698352      -4.44544586
H       -4.82160093      -3.74294758      -5.03906400
H       -3.06829543      -5.34906881      -9.02088113
H       -1.86993180      -4.09457667      -8.61417407
H       -5.65269966      -1.49610651      -9.41154473
C       -7.24938583      -0.59626318      -7.51871297
C       -8.09679742       0.24456890      -7.68997601
Br      -9.46699027       1.60412326      -7.96689385
C       -0.88205816       0.88205816       0.88205816
C       -0.69774455       2.25983661       0.88066842
C       -1.50417868       3.05688853       1.68784216
C       -2.49351949       2.47670243       2.48899744
C       -2.70239645       1.08575178       2.49883498
C       -1.86691775       0.29656773       1.68203199
C       -3.77092907       0.41988633       3.36019580
C       -4.74051725      -0.44773516       2.55051563
N       -3.15290825      -0.34971812       4.41829813
C       -3.53355700       0.06051637       5.67265014
O       -3.14891879      -0.46914145       6.70058730
N       -4.39415793       1.10395969       5.54724399
C       -5.02117663       1.79272035       6.65643323
C       -4.16260341       2.91732697       7.20316935
C       -3.85888288       3.99852398       6.34609665
C       -3.07480434       5.02815647       6.82055538
O       -2.68975519       6.12336055       6.11396770
C       -1.91471872       6.82753693       7.10705360
O       -1.85629405       6.14368808       8.37647125
C       -2.59952848       5.03790210       8.10622129
C       -2.88143641       4.01932720       8.98785084
C       -3.66909795       2.95087646       8.53203828
C       -4.61925251       1.37676956       4.22768804
O       -5.38911109       2.22844069       3.80019186
H        0.06543549       2.72118992       0.25962424
H       -1.36737992       4.13596321       1.69538735
H       -3.09779548       3.14749616       3.09658850
H       -1.98178258      -0.78513230       1.66608705
H       -5.53590668      -0.85612139       3.18624665
H       -4.23765428      -1.30109793       2.08293097
H       -5.22306673       0.13626732       1.75831477
H       -2.48035705      -1.09442015       4.29760335
H       -5.26413436       1.04478742       7.41401204
H       -5.97407926       2.22057577       6.32150866
H       -4.23420040       4.04117538       5.32823672
H       -2.35977069       7.81722410       7.26125058
H       -0.89347270       6.95534441       6.72986541
H       -2.50066921       4.05680778      10.00287391
C       -3.95238741       1.91770131       9.49427328
C       -4.18964233       1.05241711      10.30014508
Br      -4.57326347      -0.34667424      11.60317164
C        0.88205816      -0.88205816       0.88205816
C        2.20324768      -0.51886248       1.11613942
C        3.00117993      -1.32807942       1.91965002
C        2.47656116      -2.49307291       2.48958530
C        1.14012768      -2.87428296       2.27257257
C        0.35316332      -2.04582090       1.44653325
C        0.53589645      -4.13764620       2.87746855
C       -0.72501763      -3.86400541       3.70430994
N        0.26977625      -5.11117897       1.84053303
C        0.93478607      -6.29719269       2.03474475
O        0.83066662      -7.25771493       1.29198308
N        1.67542826      -6.20061530       3.16931806
C        2.50158305      -7.26194769       3.70679946
C        3.89922626      -7.26646474       3.11740872
C        4.71988987      -6.13917749       3.34443616
C        5.99138211      -6.11963678       2.81249730
O        6.88746933      -5.10516348       2.93445063
C        8.00695528      -5.64295345       2.19940052
O        7.75767605      -6.95823770       1.66053963
C        6.48456974      -7.17255933       2.08652280
C        5.73419507      -8.30226939       1.85215000
C        4.43130891      -8.34886201       2.37184177
C        1.49074505      -4.97953807       3.75342698
O        1.98461774      -4.61836745       4.81475845
H        2.61987038       0.38571458       0.68122287
H        4.03678503      -1.05386984       2.10807562
H        3.14362976      -3.08557350       3.11267687
H       -0.68245235      -2.30636205       1.23882763
H       -1.09529143      -4.77987127       4.18145209
H       -1.54324453      -3.47220973       3.09052212
H       -0.52295530      -3.13921187       4.50139226
H       -0.30758419      -4.96760773       1.02351671
H        1.97495719      -8.20447459       3.54350204
H        2.58791845      -7.13527854       4.79296671
H        4.37645617      -5.29404949       3.93310684
H        8.87265152      -5.69606024       2.86953362
H        8.24292839      -4.96362750       1.37212665
H        6.15248222      -9.12526190       1.28260678
C        3.69075470      -9.55714944       2.11645784
C        3.07054056     -10.56909017       1.90257380
Br       2.06770674     -12.20531273       1.55674139
