157
Properties=species:S:1:pos:R:3 pbc="F F F"
C        0.00000000       0.00000000       0.00000000
C        0.88122876       0.88122876      -0.88122876
C        0.61775842       2.24377108      -0.98277009
C        1.41527888       3.04332713      -1.80733294
C        2.48155698       2.48984497      -2.52993085
C        2.74205564       1.12316583      -2.40494709
C        1.94114439       0.31826155      -1.58595394
N        3.20987872       3.36241876      -3.36565482
C        4.30623108       3.05491560      -4.15810046
O        4.87626413       1.96696096      -4.19962045
C        4.77059182       4.23195726      -5.02655339
H        4.15550701       5.11932018      -4.84404682
C        6.21815728       4.57375326      -4.69784856
S        4.62354124       3.77520892      -6.79455938
C        2.91300058       3.49327674      -6.86295492
N        2.01733999       4.24891851      -6.25997482
N        0.79063202       3.66833108      -6.50009866
C        1.02211200       2.59313261      -7.22825916
O        2.35232746       2.42923282      -7.51285972
C        0.09544673       1.58729427      -7.73163818
C       -1.28253974       1.74514078      -7.50914091
C       -2.19726741       0.79047523      -7.96096524
C       -1.74540106      -0.33758668      -8.64176566
C       -0.38083890      -0.50309790      -8.86883711
C        0.53811916       0.44841716      -8.42113203
H       -0.20565687       2.69216683      -0.43324120
H        1.18615406       4.10395245      -1.87627956
H        3.55271191       0.64247101      -2.94325926
H        2.15402154      -0.74538604      -1.51500102
H        2.84321755       4.30558534      -3.42899454
H        6.89346555       3.72915517      -4.87515445
H        6.31095662       4.84150621      -3.63899032
H        6.56931918       5.42848848      -5.28634675
H       -1.65408781       2.61882697      -6.97431630
H       -3.26052930       0.92691223      -7.77761040
H       -2.46082894      -1.07941751      -8.98751244
H        1.59948579       0.29471122      -8.60458702
C        0.08662204      -1.67115528      -9.56935280
C        0.47812057      -2.64940333     -10.15603470
Br       1.11114059      -4.23114769     -11.10464970
C       -0.88122876      -0.88122876      -0.88122876
C       -2.23904762      -0.60235120      -1.00290077
C       -3.04620121      -1.42465373      -1.79508400
C       -2.50312375      -2.52487043      -2.47333862
C       -1.13539161      -2.78193433      -2.35284261
C       -0.32558385      -1.96502866      -1.55474737
N       -3.39673434      -3.32181107      -3.21940690
C       -3.09652237      -4.44194620      -3.98077857
O       -1.96867539      -4.88185634      -4.19231381
C       -4.34130875      -5.12728026      -4.56051345
H       -5.25156441      -4.58686819      -4.28044141
C       -4.24929489      -5.15982193      -6.08064227
S       -4.45305129      -6.83456310      -3.90569515
C       -4.58402661      -6.47086579      -2.21433984
N       -5.31256101      -5.48678499      -1.72688731
N       -5.10812950      -5.48704214      -0.36389011
C       -4.26266963      -6.46789554      -0.11293860
O       -3.89998888      -7.14971683      -1.24471428
C       -3.67113835      -6.89263880       1.14939797
C       -4.05639041      -6.25641569       2.34106415
C       -3.49524010      -6.62527672       3.56634376
C       -2.53867809      -7.63655041       3.61645058
C       -2.15052239      -8.27487913       2.44050122
C       -2.70898573      -7.91176045       1.21307783
H       -2.68042748       0.24394890      -0.48327258
H       -4.10552375      -1.19127939      -1.86958293
H       -0.66346506      -3.62119141      -2.85378570
H        0.73357542      -2.19254604      -1.46466590
H       -4.37498272      -3.06958155      -3.13323317
H       -3.36426430      -5.70324534      -6.43026553
H       -4.17593207      -4.13995194      -6.47556913
H       -5.13811512      -5.62216411      -6.52387518
H       -4.79981519      -5.45997412       2.32073387
H       -3.80282292      -6.12026721       4.47909680
H       -2.10211601      -7.91686419       4.57171421
H       -2.38573635      -8.42010138       0.30705371
C       -1.15887392      -9.31775989       2.49181425
C       -0.32836832     -10.19117253       2.53478891
Br       1.01448899     -11.60340689       2.60427530
C       -0.88122876       0.88122876       0.88122876
C       -2.17075067       0.46973923       1.20380969
C       -2.98149253       1.28993439       1.99451202
C       -2.50920320       2.52079792       2.47133168
C       -1.20702429       2.91204456       2.15109970
C       -0.39500942       2.09671949       1.35363096
N       -3.40712164       3.30049564       3.23033502
C       -3.16742790       4.53430399       3.81751525
O       -2.08761896       5.12084914       3.83437744
C       -4.41601236       5.14368868       4.46940142
H       -5.27633105       4.47378269       4.36876026
C       -4.15928728       5.37799608       5.95247573
S       -4.81500689       6.73130872       3.64699393
C       -5.08748702       6.14461351       2.03713171
N       -5.73588247       5.03155463       1.75879622
N       -5.68696679       4.88259490       0.38950007
C       -5.00556005       5.91232744      -0.07438372
O       -4.60749383       6.76786571       0.91906046
C       -4.61742445       6.23780323      -1.44084850
C       -5.05019886       5.41712126      -2.49557818
C       -4.68080530       5.68879452      -3.81542676
C       -3.87125085       6.78630519      -4.09877812
C       -3.43763938       7.60740314      -3.06014221
C       -3.80486959       7.34196131      -1.73916255
H       -2.55710621      -0.47943734       0.84208229
H       -3.98782285       0.95074852       2.22781470
H       -0.79176207       3.85533880       2.49134131
H        0.61015542       2.42814664       1.10564530
H       -4.34914267       2.93151231       3.29714246
H       -3.31642775       6.05682857       6.12451884
H       -3.91400412       4.43082337       6.44662566
H       -5.04413177       5.79019228       6.44983037
H       -5.68012962       4.55145820      -2.29253238
H       -5.02237413       5.04135397      -4.61973477
H       -3.58325784       6.99084890      -5.12684074
H       -3.44903258       7.99358940      -0.94383795
C       -2.59762728       8.73984244      -3.35265016
C       -1.89411714       9.68826035      -3.59762556
Br      -0.75660075      11.22177190      -3.99373006
C        0.88122876      -0.88122876       0.88122876
C        0.73939877      -2.26486043       0.84004039
C        1.53478653      -3.06694465       1.66420776
C        2.47817925      -2.49432950       2.52882404
C        2.61868734      -1.10464415       2.54683706
C        1.81895445      -0.29807088       1.72833455
N        3.21084447      -3.37583386       3.35127397
C        4.20121024      -3.05117992       4.26685697
O        4.66064669      -1.92701071       4.45518814
C        4.69790524      -4.26043628       5.07076094
H        4.18702573      -5.17625437       4.75559391
C        6.19408220      -4.44409706       4.85157982
S        4.35711513      -3.98642576       6.84976865
C        2.62811393      -3.86024707       6.78087123
N        1.86269027      -4.62996540       6.03357764
N        0.57071225      -4.18214232       6.20620719
C        0.63654108      -3.16433824       7.04262445
O        1.91602490      -2.91422679       7.46416831
C       -0.42048465      -2.29371684       7.54114698
C       -1.75325724      -2.54777431       7.17722487
C       -2.78919615      -1.72203095       7.62133827
C       -2.50568218      -0.62839592       8.43606418
C       -1.18733884      -0.36832048       8.80391867
C       -0.14785454      -1.19096308       8.36455981
H        0.01212449      -2.72865871       0.17896796
H        1.40141218      -4.14510211       1.61987178
H        3.33123126      -0.60885128       3.19835963
H        1.93610166       0.78187654       1.76941140
H        2.93048401      -4.34878380       3.29852963
H        6.76916538      -3.56502957       5.16358022
H        6.40232833      -4.60204903       3.78707578
H        6.57223315      -5.31705993       5.39486133
H       -1.99359178      -3.39594145       6.53670578
H       -3.81518951      -1.93148683       7.32769601
H       -3.31480093       0.01335999       8.77542691
H        0.87462534      -0.96455140       8.65960728
C       -0.89381562       0.76446894       9.64310413
C       -0.64798993       1.71318009      10.34592195
Br      -0.25051057       3.24716577      11.48231893
