178
Properties=species:S:1:pos:R:3 pbc="F F F"
C        1.79113278       1.79113278      -1.79113278
C        1.52766245       3.15367510      -1.89267411
C        2.32518290       3.95323115      -2.71723696
C        3.39146101       3.39974899      -3.43983487
C        3.65195966       2.03306985      -3.31485112
C        2.85104841       1.22816557      -2.49585796
N        4.11978275       4.27232278      -4.27555884
C        5.21613510       3.96481963      -5.06800448
O        5.78616815       2.87686499      -5.10952448
C        5.68049584       5.14186128      -5.93645741
H        5.06541104       6.02922420      -5.75395084
C        7.12806130       5.48365728      -5.60775258
S        5.53344527       4.68511294      -7.70446340
C        3.82290461       4.40318076      -7.77285894
N        2.92724402       5.15882253      -7.16987884
N        1.70053604       4.57823510      -7.41000269
C        1.93201602       3.50303664      -8.13816319
O        3.26223148       3.33913684      -8.42276374
C        1.00535075       2.49719829      -8.64154220
C       -0.37263572       2.65504481      -8.41904494
C       -1.28736338       1.70037925      -8.87086927
C       -0.83549704       0.57231734      -9.55166969
C        0.52906512       0.40680612      -9.77874113
C        1.44802319       1.35832118      -9.33103606
H        0.70424715       3.60207085      -1.34314523
H        2.09605808       5.01385648      -2.78618358
H        4.46261593       1.55237504      -3.85316328
H        3.06392557       0.16451798      -2.42490504
H        3.75312157       5.21548937      -4.33889856
H        7.80336957       4.63905919      -5.78505847
H        7.22086064       5.75141023      -4.54889434
H        7.47922321       6.33839250      -6.19625077
H       -0.74418379       3.52873099      -7.88422032
H       -2.35062527       1.83681626      -8.68751442
H       -1.55092491      -0.16951348      -9.89741646
H        2.50938981       1.20461524      -9.51449104
C        0.99652606      -0.76125125     -10.47925682
C        1.38802459      -1.73949930     -11.06593872
Br       2.02104461      -3.32124367     -12.01455372
C       -1.79113278      -1.79113278      -1.79113278
C       -1.55984746      -1.85225805      -3.16190616
C       -2.38267752      -2.64503857      -3.96793492
C       -3.43583575      -3.38411165      -3.41109746
C       -3.64491760      -3.32369412      -2.03126890
C       -2.82759256      -2.52531246      -1.22216693
N       -4.23831904      -4.12670788      -4.30263746
C       -5.31756206      -4.94063841      -3.99075874
O       -5.70619251      -5.20995323      -2.85641188
C       -6.02805252      -5.50001599      -5.23074603
H       -5.53329356      -5.16641123      -6.14888129
C       -6.00133279      -7.02263259      -5.19550578
S       -7.76120285      -4.90697524      -5.25484353
C       -7.46498750      -3.19934346      -5.33461335
N       -6.52786606      -2.64842748      -6.07965185
N       -6.57030056      -1.29483616      -5.82363711
C       -7.52681394      -1.11254196      -4.93385995
O       -8.15240254      -2.28197187      -4.58975766
C       -7.97472403       0.11019067      -4.27955789
C       -7.39772381       1.33851980      -4.64225001
C       -7.78962745       2.52748692      -4.02174461
C       -8.76493018       2.50398742      -3.02754723
C       -9.34449864       1.29116662      -2.66128036
C       -8.95814852       0.09974174      -3.27897365
H       -0.75056796      -1.28497826      -3.61391701
H       -2.18720366      -2.67172828      -5.03716620
H       -4.44668651      -3.87316651      -1.54830122
H       -3.01779498      -2.48283314      -0.15272046
H       -4.02682051      -3.99520338      -5.28548561
H       -6.49750949      -7.42488148      -4.30509627
H       -4.96562104      -7.38089282      -5.17465135
H       -6.48060198      -7.45026112      -6.08300338
H       -6.62993512       1.37576853      -5.41460094
H       -7.33047985       3.46945330      -4.31267886
H       -9.06325405       3.43125102      -2.54497504
H       -9.42027344      -0.83620606      -2.97201659
C      -10.35007353       1.26638309      -1.63084118
C      -11.19224251       1.24562687      -0.76784837
Br     -12.55395852       1.21206583       0.62753802
C       -1.79113278       1.79113278       1.79113278
C       -3.14472219       1.49976836       1.92952111
C       -3.95218262       2.32191604       2.72155236
C       -3.41355231       3.43446723       3.38302533
C       -2.04981539       3.70413277       3.24593247
C       -1.23981625       2.88734775       2.44790795
N       -4.30766846       4.22990724       4.13008868
C       -4.01123999       5.36076436       4.87695486
O       -2.88587031       5.81422553       5.07246178
C       -5.25703856       6.03934712       5.46242885
H       -6.16450510       5.48689801       5.19718296
C       -5.14996083       6.08838235       6.98112798
S       -5.39288675       7.73861566       4.79151920
C       -5.53726663       7.35631113       3.10536655
N       -6.26058993       6.35995776       2.63539769
N       -6.06999634       6.34833129       1.27044620
C       -5.23721043       7.33508223       1.00092318
O       -4.87007777       8.03209664       2.12195767
C       -4.66288329       7.75285174      -0.27164379
C       -5.05365879       7.10058882      -1.45279359
C       -4.50876172       7.46255341      -2.68743000
C       -3.56316110       8.48290393      -2.75757504
C       -3.16966311       9.13714076      -1.59219149
C       -3.71191055       8.78096710      -0.35549723
H       -3.58265756       0.64376229       1.42304338
H       -5.00825067       2.07859240       2.80925506
H       -1.58145376       4.55321483       3.73348566
H       -0.18400939       3.12465385       2.34468535
H       -5.28410615       3.96690696       4.05649639
H       -4.26704267       6.64429894       7.31614563
H       -5.06216073       5.07340533       7.38559916
H       -6.03893048       6.54620649       7.42872952
H       -5.78864573       6.29690341      -1.41678161
H       -4.82039272       6.94513340      -3.59182071
H       -3.13919608       8.75783240      -3.72005042
H       -3.38471693       9.30180808       0.54197108
C       -2.18931551      10.18943832      -1.66422220
C       -1.36827440      11.07073753      -1.72454792
Br      -0.04072036      12.49572382      -1.82208951
C        1.79113278      -1.79113278       1.79113278
C        1.74917551      -3.17481482       1.65002133
C        2.54315401      -3.97887645       2.47362055
C        3.38590797      -3.40769331       3.43744358
C        3.42763809      -2.01645446       3.55578808
C        2.62865174      -1.20860285       2.73781735
N        4.12310388      -4.29478192       4.24977857
C        5.02659387      -3.97092010       5.25144524
O        5.39321534      -2.83507263       5.54426965
C        5.55297518      -5.19835456       6.00748480
H        5.12887859      -6.12130768       5.59839980
C        7.06941981      -5.26832953       5.88172182
S        5.07862939      -5.07194171       7.77245050
C        3.35321851      -5.05426688       7.59145892
N        2.69372291      -5.81823432       6.74398816
N        1.36514807      -5.46874214       6.85488362
C        1.30512560      -4.50965606       7.75843418
O        2.53382564      -4.20667480       8.28363163
C        0.15968086      -3.74671673       8.23769366
C       -1.12554615      -4.06112090       7.76587927
C       -2.24332162      -3.33768335       8.18952340
C       -2.09053038      -2.28740593       9.09161444
C       -0.82034297      -1.96822648       9.56672886
C        0.30043534      -2.68867800       9.14826709
H        1.10068845      -3.63778874       0.91098604
H        2.48850537      -5.05770940       2.34988337
H        4.05985245      -1.52192630       4.28637549
H        2.66723501      -0.12881877       2.85729481
H        3.91534856      -5.27788529       4.11427565
H        7.56019728      -4.37755189       6.28973807
H        7.35714265      -5.33770882       4.82631375
H        7.47132801      -6.15055254       6.39198593
H       -1.26384075      -4.87639166       7.05621662
H       -3.23086576      -3.59259074       7.81198042
H       -2.96285514      -1.72501718       9.41481602
H        1.28320740      -2.41721944       9.52806926
C       -0.66191492      -0.88002758      10.49641898
C       -0.52923144       0.03133900      11.27503445
Br      -0.31469346       1.50494168      12.53398981
C       -0.00445707       0.01189536      -1.78238275
H       -0.66409135       0.67374010      -2.43557963
H        0.65740317      -0.63156657      -2.45157240
C       -0.90989263      -0.90692880      -0.91072765
C        0.90977584       0.90977584      -0.90977584
C       -0.00465871       1.77757030       0.00794375
H       -0.66225468       2.44313916      -0.64384735
H        0.64322798       2.43503045       0.67728295
C       -1.78241447       0.00034974      -0.00472694
H       -2.45427497      -0.65498947       0.64260836
H       -2.43311707       0.67328779      -0.65473579
C       -0.91132561       0.90220522       0.91563759
C       -0.01476271      -0.02253852       1.78660255
H       -0.67934791      -0.69751639       2.42135241
H        0.63392994       0.61504881       2.47327442
C        0.01484550      -1.77751727      -0.01636693
H        0.67870853      -2.42144646      -0.68295456
H       -0.62264859      -2.45592969       0.64226336
C        1.78714474       0.01002794       0.00389507
H        2.44202412       0.67113390       0.66197326
H        2.45385902      -0.65136977      -0.64189061
C        0.91606151      -0.90478549       0.90901405
