134
Properties=species:S:1:pos:R:3 pbc="F F F"
C        1.79122276       1.79122276      -1.79122276
C        1.50949078       1.91848510      -3.14646777
C        2.31808336       2.72736159      -3.95488475
C        3.40657048       3.42991880      -3.41923542
N        4.26585659       4.23061746      -4.18532869
C        4.23980723       4.46987513      -5.52287898
N        4.93655308       5.40243266      -6.08595045
C        4.80242001       5.54534093      -7.47695528
C        3.56446105       5.80424482      -8.08013776
C        3.46627932       5.96037642      -9.46498467
C        4.61398926       5.87882572     -10.25005836
C        5.85644272       5.64717335      -9.66259535
C        5.94641269       5.48490628      -8.27745483
C        3.67830602       3.27017088      -2.05037102
C        2.87651150       2.46237814      -1.23728131
H        0.66546808       1.39545904      -3.58926064
H        2.06054149       2.80167032      -5.00652857
H        4.88057414       4.84661634      -3.66731814
H        3.58306105       3.79764118      -6.10039162
H        2.67204603       5.89280174      -7.46756453
H        2.49677210       6.15259300      -9.91463271
H        6.75768706       5.59640760     -10.26789012
H        6.91424254       5.31400110      -7.81444921
H        4.52755245       3.77832162      -1.59761237
H        3.10974302       2.36384741      -0.18061604
C        4.51612599       6.04399238     -11.67720333
C        4.43416549       6.18231946     -12.87243723
Br       4.30164231       6.40598265     -14.80502938
C       -1.79122276      -1.79122276      -1.79122276
C       -2.65042310      -2.71556706      -1.20845348
C       -3.45915996      -3.52392955      -2.01724019
C       -3.43181806      -3.40970006      -3.41420658
N       -4.19743042      -4.21117149      -4.27320083
C       -5.06044796      -5.21294414      -3.95916923
N       -5.88303814      -5.72848746      -4.81341060
C       -6.72727216      -6.74998827      -4.34745578
C       -7.61606537      -6.54995132      -3.28282694
C       -8.45697068      -7.58012928      -2.85454045
C       -8.42559320      -8.81051387      -3.50676627
C       -7.56535010      -9.01718511      -4.58367621
C       -6.72183147      -7.98459916      -5.00234317
C       -2.54253684      -2.47932174      -3.97698934
C       -1.73028594      -1.67018114      -3.17570387
H       -2.70286336      -2.81978900      -0.12753540
H       -4.11795561      -4.22949632      -1.52128843
H       -4.25394522      -3.90397972      -5.23658368
H       -5.00047434      -5.56507118      -2.91554833
H       -7.65986897      -5.58379247      -2.78875086
H       -9.13322678      -7.40821497      -2.02255607
H       -7.54598468      -9.97017045      -5.10582966
H       -6.05683353      -8.13827048      -5.84758885
H       -2.47146970      -2.37414179      -5.05787495
H       -1.05677503      -0.95596910      -3.64146234
C       -9.29463422      -9.87248403      -3.07020345
C      -10.02245607     -10.76188403      -2.70458209
Br     -11.19928245     -12.19996862      -2.11340326
C       -1.79122276       1.79122276       1.79122276
C       -1.36324009       3.06530936       2.14589419
C       -2.17212196       3.87388687       2.95432087
C       -3.42228645       3.42795663       3.40548162
N       -4.26043099       4.18231788       4.23905386
C       -4.04963185       5.41734558       4.76558390
N       -4.98302830       6.11174079       5.33016711
C       -4.62581970       7.37895505       5.81994147
C       -4.08882925       8.37112368       4.98889071
C       -3.76114490       9.62861346       5.50188205
C       -3.99082336       9.90424695       6.84780304
C       -4.54795968       8.93648315       7.68176860
C       -4.86680660       7.67835257       7.16361464
C       -3.82258036       2.13043270       3.04583486
C       -3.01914386       1.31643182       2.24059528
H       -0.40382446       3.44406760       1.80229570
H       -1.80158309       4.86282564       3.20433164
H       -5.21364416       3.85214759       4.32871687
H       -3.01228724       5.78365399       4.68515261
H       -3.93186410       8.16667123       3.93387696
H       -3.33857225      10.38177011       4.84365545
H       -4.74272673       9.14973480       8.72952326
H       -5.31036986       6.92441742       7.80790557
H       -4.77496794       1.73490984       3.39360866
H       -3.35970018       0.31932395       1.97518234
C       -3.65822795      11.20113278       7.37796097
C       -3.37967929      12.28727467       7.82196823
Br      -2.92928967      14.04347424       8.53989042
C        1.79122276      -1.79122276       1.79122276
C        3.17384835      -1.74540519       1.65519011
C        3.98232221      -2.55392211       2.46408538
C        3.42313083      -3.40529485       3.42729901
N        4.18122246      -4.25657402       4.24400626
C        5.52782305      -4.43862232       4.26611596
N        6.13778936      -5.07474515       5.21240169
C        7.53532227      -5.17638768       5.11300626
C        8.35852660      -4.04447501       5.04584202
C        9.74696946      -4.17787564       4.96679530
C       10.31817306      -5.44825458       4.97644571
C        9.51451728      -6.58321417       5.06847998
C        8.12593113      -6.44272786       5.14011481
C        2.02288619      -3.44390977       3.53205196
C        1.20902791      -2.64097539       2.72616765
H        3.63807167      -1.08691155       0.92520454
H        5.05673149      -2.48432435       2.32768454
H        3.69614846      -4.66437222       5.03398794
H        6.06687520      -4.00950734       3.40471130
H        7.91690119      -3.05242536       5.06308575
H       10.36765965      -3.28888941       4.90744876
H        9.95461481      -7.57670410       5.09066588
H        7.49641603      -7.32437334       5.22190349
H        1.54546755      -4.10794286       4.25007602
H        0.12905643      -2.68976944       2.83538060
C       11.74929278      -5.58829580       4.89973312
C       12.94785554      -5.70558033       4.83548632
Br      14.88583015      -5.89521949       4.73160469
C       -0.00445707       0.01189536      -1.78238275
H       -0.66409135       0.67374010      -2.43557963
H        0.65740317      -0.63156657      -2.45157240
C       -0.90989263      -0.90692880      -0.91072765
C        0.90977584       0.90977584      -0.90977584
C       -0.00465871       1.77757030       0.00794375
H       -0.66225468       2.44313916      -0.64384735
H        0.64322798       2.43503045       0.67728295
C       -1.78241447       0.00034974      -0.00472694
H       -2.45427497      -0.65498947       0.64260836
H       -2.43311707       0.67328779      -0.65473579
C       -0.91132561       0.90220522       0.91563759
C       -0.01476271      -0.02253852       1.78660255
H       -0.67934791      -0.69751639       2.42135241
H        0.63392994       0.61504881       2.47327442
C        0.01484550      -1.77751727      -0.01636693
H        0.67870853      -2.42144646      -0.68295456
H       -0.62264859      -2.45592969       0.64226336
C        1.78714474       0.01002794       0.00389507
H        2.44202412       0.67113390       0.66197326
H        2.45385902      -0.65136977      -0.64189061
C        0.91606151      -0.90478549       0.90901405
