126
Properties=species:S:1:pos:R:3 pbc="F F F"
C        1.79122276       1.79122276      -1.79122276
C        1.50949078       1.91848510      -3.14646777
C        2.31808336       2.72736159      -3.95488475
C        3.40657048       3.42991880      -3.41923542
N        4.26585659       4.23061746      -4.18532869
C        4.23980723       4.46987513      -5.52287898
N        4.93655308       5.40243266      -6.08595045
C        4.80242001       5.54534093      -7.47695528
C        3.56446105       5.80424482      -8.08013776
C        3.46627932       5.96037642      -9.46498467
C        4.61398926       5.87882572     -10.25005836
Br       4.48551397       6.09565717     -12.12361991
C        5.85644272       5.64717335      -9.66259535
C        5.94641269       5.48490628      -8.27745483
C        3.67830602       3.27017088      -2.05037102
C        2.87651150       2.46237814      -1.23728131
H        0.66546808       1.39545904      -3.58926064
H        2.06054149       2.80167032      -5.00652857
H        4.88057414       4.84661634      -3.66731814
H        3.58306105       3.79764118      -6.10039162
H        2.67204603       5.89280174      -7.46756453
H        2.49677210       6.15259300      -9.91463271
H        6.75768706       5.59640760     -10.26789012
H        6.91424254       5.31400110      -7.81444921
H        4.52755245       3.77832162      -1.59761237
H        3.10974302       2.36384741      -0.18061604
C       -1.79122276      -1.79122276      -1.79122276
C       -2.64992899      -2.71603966      -1.20847499
C       -3.45866599      -3.52440214      -2.01726158
C       -3.43181954      -3.40970584      -3.41419933
N       -4.19745076      -4.21114665      -4.27320533
C       -5.06003692      -5.21330507      -3.95921934
N       -5.88273811      -5.72883805      -4.81336004
C       -6.72648448      -6.75076826      -4.34746348
C       -7.61499410      -6.55137166      -3.28247787
C       -8.45542127      -7.58196557      -2.85425357
C       -8.42385437      -8.81212598      -3.50689300
Br      -9.56408989     -10.20684634      -2.93385482
C       -7.56389669      -9.01816220      -4.58415253
C       -6.72085385      -7.98516259      -5.00275736
C       -2.54302786      -2.47885160      -3.97696846
C       -1.73077953      -1.66970741      -3.17568401
H       -2.70198070      -2.82063305      -0.12757401
H       -4.11706772      -4.23034737      -1.52132528
H       -4.25438209      -3.90365769      -5.23646883
H       -4.99960573      -5.56575446      -2.91573366
H       -7.65895237      -5.58538920      -2.78807073
H       -9.13146086      -7.41054568      -2.02199127
H       -7.54439013      -9.97096995      -5.10662471
H       -6.05608273      -8.13833884      -5.84827129
H       -2.47234958      -2.37329410      -5.05784276
H       -1.05765548      -0.95512198      -3.64142902
C       -1.79122276       1.79122276       1.79122276
C       -1.31516190       3.01676737       2.24251436
C       -2.12403401       3.82537092       3.05092477
C       -3.42099563       3.42886316       3.40586592
N       -4.26348440       4.18374543       4.23457291
C       -4.01606798       5.37354930       4.84294405
N       -4.94113503       6.08900857       5.39479260
C       -4.54386791       7.30439054       5.97645777
C       -3.90560131       8.30782408       5.23541824
C       -3.53965090       9.51395487       5.83803464
C       -3.83181589       9.72801449       7.18304297
Br      -3.34343476      11.36136506       7.99999123
C       -4.48899036       8.74992029       7.92730077
C       -4.84586633       7.54292013       7.31998735
C       -3.87045671       2.17861764       2.94977357
C       -3.06749654       1.36474994       2.14392447
H       -0.31797562       3.35733467       1.97487747
H       -1.71482780       4.77578981       3.37812276
H       -5.23702396       3.90522248       4.25226217
H       -2.95721655       5.68268591       4.84119139
H       -3.69894264       8.15294337       4.18052629
H       -3.03865300      10.27629883       5.24904599
H       -4.73242237       8.91617315       8.97338927
H       -5.36701852       6.78178964       7.89388470
H       -4.86180328       1.82070051       3.22098265
H       -3.44636906       0.40528946       1.80254796
C        1.79122276      -1.79122276       1.79122276
C        3.17495579      -1.67969664       1.71979120
C        3.98341342      -2.48823249       2.52868380
C        3.42214654      -3.40551763       3.42806054
N        4.18191172      -4.25925874       4.24063228
C        5.53314303      -4.38384118       4.31557712
N        6.12977630      -5.03508157       5.26007833
C        7.53345732      -5.07173714       5.21952175
C        8.30690349      -3.90347986       5.23846028
C        9.70206646      -3.97314160       5.21643235
C       10.32903599      -5.21683015       5.19700721
Br      12.21678949      -5.31470374       5.17329782
C        9.57416448      -6.38840653       5.20364041
C        8.17885877      -6.31134482       5.21857021
C        2.02185373      -3.50920466       3.46778954
C        1.20814404      -2.70660861       2.66141830
H        3.64007479      -0.96953150       1.04058146
H        5.05847452      -2.36625600       2.44400986
H        3.68208698      -4.72282296       4.98959867
H        6.08896126      -3.89345120       3.49868139
H        7.82065206      -2.93319931       5.27856093
H       10.28401242      -3.05642847       5.22355692
H       10.05725452      -7.36196883       5.20276144
H        7.58680560      -7.22212450       5.23376275
H        1.54433113      -4.22492836       4.13422694
H        0.12776649      -2.80683576       2.71960422
C       -0.00445707       0.01189536      -1.78238275
H       -0.66409135       0.67374010      -2.43557963
H        0.65740317      -0.63156657      -2.45157240
C       -0.90989263      -0.90692880      -0.91072765
C        0.90977584       0.90977584      -0.90977584
C       -0.00465871       1.77757030       0.00794375
H       -0.66225468       2.44313916      -0.64384735
H        0.64322798       2.43503045       0.67728295
C       -1.78241447       0.00034974      -0.00472694
H       -2.45427497      -0.65498947       0.64260836
H       -2.43311707       0.67328779      -0.65473579
C       -0.91132561       0.90220522       0.91563759
C       -0.01476271      -0.02253852       1.78660255
H       -0.67934791      -0.69751639       2.42135241
H        0.63392994       0.61504881       2.47327442
C        0.01484550      -1.77751727      -0.01636693
H        0.67870853      -2.42144646      -0.68295456
H       -0.62264859      -2.45592969       0.64226336
C        1.78714474       0.01002794       0.00389507
H        2.44202412       0.67113390       0.66197326
H        2.45385902      -0.65136977      -0.64189061
C        0.91606151      -0.90478549       0.90901405
