161
Properties=species:S:1:pos:R:3 pbc="F F F"
C        0.00000000       0.00000000       0.00000000
C        0.04096321       4.06897801      -7.21623669
C        0.40877508       2.84791695      -6.38953849
O        1.35236555       3.17411099      -5.35455947
C        2.64644891       3.29185494      -5.76490842
O        2.99826766       3.20318310      -6.93821705
C        3.59501759       3.60020212      -4.69339561
C        4.75325664       4.32787121      -4.98150645
S        5.72740964       4.56431489      -3.61707179
C        4.67412848       3.69273282      -2.62359037
C        3.53395961       3.25056278      -3.27500885
C        2.55925290       2.46822555      -2.49445710
C        1.93227661       1.33183212      -3.01803444
C        1.08509375       0.54962527      -2.21931566
C        0.88148917       0.88148917      -0.88148917
C        1.49141639       2.00546189      -0.33923683
C        2.30940005       2.80095255      -1.14688384
N        5.13845027       4.83908826      -6.21912457
C        6.24539218       5.63722921      -6.48912908
O        7.07107461       6.02413624      -5.67225812
C        6.36258079       6.01922716      -7.88371490
C        7.33379985       6.77527233      -8.51525492
C        6.96501387       6.86033192      -9.87751922
C        5.78996083       6.15105157      -9.99514959
O        5.41460727       5.63697198      -8.79466224
H       -0.70320918       3.81040487      -7.97554228
H        0.91439576       4.48937720      -7.72427974
H       -0.36520267       4.85892573      -6.57716816
H        0.79612082       2.04016235      -7.02246213
H       -0.48785089       2.46091750      -5.89448968
H        4.95459697       3.54771848      -1.58918492
H        2.10664804       1.01639519      -4.04254216
H        0.60641593      -0.32794659      -2.64602866
H        1.35174867       2.26822624       0.70642366
H        2.77009099       3.67710965      -0.69396394
H        4.54973888       4.60360642      -7.01736483
H        8.19917050       7.20844377      -8.03083271
H        7.49278247       7.37583766     -10.66739744
C        5.05541886       5.98454083     -11.22247280
C        4.44023996       5.84508809     -12.25035599
Br       3.44554770       5.61960480     -13.91235617
C       -6.80655996      -4.71842650       0.19880855
C       -5.29292585      -4.58634477       0.23304010
O       -4.77658084      -4.09036354      -1.01409163
C       -4.67802034      -5.01486670      -2.01032522
O       -5.06298116      -6.17593952      -1.90074714
C       -4.12790534      -4.49665724      -3.26405274
C       -4.51330692      -5.07009418      -4.47923320
S       -3.75532066      -4.34515301      -5.80832265
C       -2.88023380      -3.28588352      -4.82433434
C       -3.17629078      -3.40705764      -3.47618282
C       -2.45321492      -2.53360556      -2.53511506
C       -1.96107221      -3.00740331      -1.31366765
C       -1.19064482      -2.18034696      -0.48304290
C       -0.88148917      -0.88148917      -0.88148917
C       -1.35960625      -0.38790020      -2.08860866
C       -2.15411876      -1.20421258      -2.89890509
N       -5.41238418      -6.11799012      -4.66628881
C       -5.86259518      -6.63045501      -5.87870029
O       -5.53694195      -6.23864899      -6.99187803
C       -6.81232301      -7.71767328      -5.73552657
C       -7.44312136      -8.47489420      -6.70631155
C       -8.28065501      -9.39179387      -6.03041612
C       -8.11075344      -9.13832947      -4.68707908
O       -7.22420509      -8.12657159      -4.49546480
H       -7.18529338      -5.06316325       1.16571866
H       -7.13160233      -5.42893130      -0.56751907
H       -7.27188648      -3.75760917      -0.04139557
H       -4.81571273      -5.53845739       0.49542483
H       -5.00864382      -3.86522293       1.00631046
H       -2.17800201      -2.61428403      -5.29921433
H       -2.14181779      -4.02955774      -0.99420986
H       -0.81969418      -2.56728785       0.46248402
H       -1.11483103       0.61895535      -2.41767557
H       -2.51675394      -0.78749418      -3.83691647
H       -5.78164742      -6.56255297      -3.82650976
H       -7.30346306      -8.36152152      -7.77346239
H       -8.92448708     -10.13882228      -6.47270820
C       -8.78751377      -9.84460991      -3.63030882
C       -9.35430054     -10.43611978      -2.74526372
Br     -10.27074682     -11.39254121      -1.31422065
C        0.23469953       6.71593445       4.84494299
C        0.24414783       5.20454412       4.68583424
O       -1.00277681       4.72008841       4.15817080
C       -2.01736307       4.62317613       5.06267306
O       -1.92214308       4.98515102       6.23237371
C       -3.27108134       4.10548143       4.51205255
C       -4.48942838       4.50268270       5.07052322
S       -5.81843634       3.78227678       4.30808320
C       -4.83111501       2.90850633       3.25083032
C       -3.48030513       3.17763097       3.40159515
C       -2.53655854       2.45326895       2.53210806
C       -1.33301846       1.93043661       3.01868810
C       -0.50137772       1.15992534       2.19273162
C       -0.88148917       0.88148917       0.88148917
C       -2.07059597       1.39039391       0.37512522
C       -2.88128595       2.18480355       1.19114693
N       -4.67943998       5.38606356       6.13115957
C       -5.89273962       5.84909747       6.62991338
O       -7.00423453       5.55094959       6.21228485
C       -5.75243987       6.77636586       7.73671713
C       -6.72542546       7.41111198       8.48778967
C       -6.05147907       8.21953851       9.43184743
C       -4.70699925       8.02967503       9.19948771
O       -4.51286642       7.15808647       8.17528860
H        1.20178923       7.07066587       5.21386133
H       -0.53853341       7.04212453       5.54739476
H        0.02050648       7.20275970       3.88863800
H        0.48045991       4.70558683       5.63361838
H        1.02524756       4.91916469       3.97363916
H       -5.30616843       2.22725442       2.55807751
H       -1.02911495       2.08691980       4.04955065
H        0.43009808       0.76485212       2.58974396
H       -2.38553538       1.16980308      -0.64178721
H       -3.80485337       2.57196144       0.76434976
H       -3.84143554       5.73186014       6.59741446
H       -7.79266047       7.29305482       8.35273168
H       -6.49572490       8.85783068      10.18246199
C       -3.65133864       8.67419777       9.93689608
C       -2.76722288       9.21398557      10.55447559
Br      -1.33768246      10.08677679      11.55304943
C        7.80197233      -0.88132268       2.64288290
C        6.67924897      -1.27127201       1.69570955
O        5.58939796      -1.89608705       2.39555100
C        5.78055626      -3.20669721       2.71595880
O        6.82601053      -3.81382672       2.49983058
C        4.65088622      -3.83154415       3.40618494
C        4.88048232      -4.87765864       4.30449333
S        3.44946786      -5.47643892       4.98288954
C        2.49288977      -4.40402374       4.09353815
C        3.22403180      -3.52798704       3.30751240
C        2.47735314      -2.56130767       2.48327473
C        2.84510476      -2.27293960       1.16409881
C        2.05850704      -1.42476828       0.37075936
C        0.88148917      -0.88148917       0.88148917
C        0.49612767      -1.15164001       2.18834743
C        1.29932285      -1.97135809       2.98655549
N        6.11148320      -5.42488766       4.66029225
C        6.34797791      -6.40539360       5.61837896
O        5.50150095      -6.95342066       6.31254735
C        7.74906756      -6.75199681       5.76445848
C        8.34758531      -7.68775380       6.58898799
C        9.73919810      -7.61309480       6.35057210
C        9.90616826      -6.63530041       5.39469332
O        8.70846812      -6.10605243       5.03172094
H        8.60653046      -0.37647892       2.09972859
H        8.22659523      -1.75570605       3.14575142
H        7.43072458      -0.21375227       3.42641437
H        7.04406739      -1.92258355       0.89209437
H        6.27841686      -0.37153207       1.21760736
H        1.41873563      -4.47532732       4.19743741
H        3.72995897      -2.71751664       0.71810978
H        2.36302504      -1.21219866      -0.65072571
H       -0.42654908      -0.74510966       2.59499067
H        0.97250694      -2.16123967       4.00741797
H        6.93098973      -5.07367180       4.16604861
H        7.82334956      -8.33759608       7.27750133
H       10.51601379      -8.19968865       6.82031513
C       11.17835549      -6.22463342       4.85944358
C       12.24381229      -5.88069981       4.41117193
Br      13.96656583      -5.32458826       3.68635459
