157
Properties=species:S:1:pos:R:3 pbc="F F F"
C        0.00000000       0.00000000       0.00000000
C        0.87875493       0.87875493      -0.87875493
C        1.76569454       1.78564224      -0.31652006
N        2.58530940       2.58186485      -1.04423814
C        2.51068162       2.46080381      -2.39396485
C        1.63724015       1.59646145      -3.04169020
C        0.81116742       0.77897585      -2.26448627
C        1.64473967       1.53986547      -4.51884957
O        2.66141189       1.81571835      -5.14077323
N        0.45223285       1.17659631      -5.10999849
C        0.32111912       1.11039286      -6.55033765
C       -0.89423099       0.28613090      -6.96510317
C       -0.78889025      -1.18028288      -6.52672489
C       -2.04517668      -1.99536733      -6.83696462
N       -2.25699977      -2.17161981      -8.25946252
C       -3.05136267      -1.30834663      -8.98654695
O       -3.66098000      -0.36640685      -8.49528148
C       -3.09963843      -1.53354514     -10.44566886
C       -3.29025957      -0.43780356     -11.28020516
N       -3.33104021      -0.51922243     -12.63383281
C       -3.19673034      -1.75559841     -13.17006178
C       -3.02455690      -2.90559396     -12.41311039
Br      -2.86476616      -4.59034624     -13.24513004
C       -2.97553419      -2.79761065     -11.02635137
H        1.85463726       1.90121922       0.75973612
H        3.18919734       3.10194253      -2.95273604
H        0.14851325       0.05385774      -2.72712809
H       -0.39957374       1.27048601      -4.57087640
H        1.23844532       0.69258931      -6.97967923
H        0.21994548       2.13778819      -6.91572499
H       -0.98319296       0.34191579      -8.05550434
H       -1.80136575       0.73178166      -6.53832062
H       -0.61968363      -1.22918950      -5.44446819
H        0.08187896      -1.64227322      -7.00820099
H       -2.92747918      -1.53110388      -6.38343529
H       -1.93950941      -2.99922668      -6.41233272
H       -1.66276625      -2.83511630      -8.73780533
H       -3.40677098       0.56602880     -10.87696448
H       -3.23805594      -1.78820881     -14.25543035
H       -2.87043850      -3.68716906     -10.41390043
C       -0.87875493      -0.87875493      -0.87875493
C       -1.87099057      -0.32314164      -1.67372462
N       -2.67271679      -1.04973479      -2.48896081
C       -2.46786863      -2.39127254      -2.50630912
C       -1.51382664      -3.03392930      -1.72763587
C       -0.69342861      -2.25708222      -0.90411871
C       -1.37083845      -4.50162518      -1.83099107
O       -1.67270605      -5.07859808      -2.86659934
N       -0.89935703      -5.13811607      -0.70135455
C       -0.74028294      -6.57669692      -0.66486976
C        0.18151665      -7.00992249       0.47140277
C        1.61005445      -6.47508566       0.30747944
C        2.51911398      -6.80716089       1.49162630
N        2.79183414      -8.22582926       1.60315217
C        2.02438793      -9.05112865       2.39990307
O        1.09517579      -8.65663307       3.09356265
C        2.33778489     -10.49357831       2.34330813
C        1.30724000     -11.40490811       2.54552608
N        1.47070229     -12.75082088       2.49654842
C        2.72568871     -13.19968341       2.25626168
C        3.81601554     -12.36333921       2.06436415
Br       5.53355530     -13.07730220       1.75372927
C        3.62361795     -10.98559637       2.10877190
H       -2.05515202       0.74712667      -1.68809501
H       -3.11620429      -2.94814585      -3.17952578
H        0.09778906      -2.71163928      -0.31564887
H       -0.97130989      -4.65708494       0.18660616
H       -0.35619295      -6.92419844      -1.63032247
H       -1.73599323      -7.01106224      -0.52640320
H        0.19578642      -8.10502070       0.49500711
H       -0.23080501      -6.66611447       1.42818294
H        1.58438448      -5.38380261       0.20382307
H        2.04415744      -6.87450437      -0.61745980
H        2.08511623      -6.43640761       2.42643914
H        3.48760179      -6.31498034       1.35378191
H        3.44383723      -8.62580199       0.94204198
H        0.29065915     -11.07292237       2.74604093
H        2.82474494     -14.28142157       2.22751103
H        4.46719324     -10.31348789       1.99000179
C       -0.87875493       0.87875493       0.87875493
C       -1.88967141       0.32617736       1.65200807
N       -2.69262886       1.05259790       2.46618563
C       -2.46947054       2.39075467       2.50522507
C       -1.49576289       3.03066969       1.74895923
C       -0.67471739       2.25385736       0.92605479
C       -1.33391274       4.49463739       1.87490456
O       -1.64228005       5.06138694       2.91423648
N       -0.83782431       5.14003452       0.76096881
C       -0.65832949       6.57660498       0.74691515
C        0.28526535       7.01253916      -0.37027073
C        1.70380797       6.45545647      -0.19409673
C        2.63393614       6.79110261      -1.36074587
N        2.92783360       8.20720725      -1.44853071
C        2.18317401       9.05417537      -2.24416371
O        1.25842453       8.68243093      -2.95611177
C        2.51570702      10.49115478      -2.16296246
C        1.50083626      11.41959407      -2.36661578
N        1.68223285      12.76226830      -2.29646528
C        2.93981883      13.19007416      -2.03252231
C        4.01564424      12.33590866      -1.83730489
Br       5.73837901      13.02128711      -1.49289045
C        3.80481258      10.96175391      -1.90373479
H       -2.08883302      -0.74149321       1.64878055
H       -3.11942359       2.94730095       3.17715138
H        0.13091727       2.70536157       0.35505478
H       -0.90395004       4.67241568      -0.13457704
H       -0.28306734       6.90525911       1.72238742
H       -1.64587926       7.02679952       0.60077988
H        0.31504232       8.10755060      -0.37828111
H       -0.11829366       6.68785440      -1.33741154
H        1.66156077       5.36331014      -0.10615431
H        2.13036237       6.83587625       0.74229285
H        2.20802304       6.43947804      -2.30660277
H        3.59347616       6.28349534      -1.21642254
H        3.57596144       8.58877509      -0.77289086
H        0.48267034      11.10474021      -2.58584757
H        3.05344470      14.26981082      -1.98720052
H        4.63723868      10.27627377      -1.78274223
C        0.87875493      -0.87875493       0.87875493
C        2.03192458      -1.46218081       0.37375145
N        2.86293261      -2.23892678       1.10955301
C        2.52066206      -2.43691343       2.40787478
C        1.37445193      -1.91084053       2.99009936
C        0.54146291      -1.10387391       2.20929273
C        1.10219232      -2.18411983       4.41714255
O        2.02524902      -2.40319023       5.18946422
N       -0.22791679      -2.18312841       4.78361603
C       -0.62845820      -2.46404651       6.14626131
C       -2.05121755      -1.98627333       6.42194729
C       -2.19756910      -0.46479419       6.29032668
C       -3.63862087       0.02006188       6.45510336
N       -4.13776035      -0.16603490       7.80256839
C       -4.83793526      -1.29843607       8.16633684
O       -5.12351541      -2.20159125       7.38981879
C       -5.19790565      -1.41625064       9.59414030
C       -5.28734060      -2.68621880      10.15326383
N       -5.58906418      -2.91693755      11.45569680
C       -5.83251026      -1.82757926      12.22266403
C       -5.78684243      -0.52623960      11.74356236
Br      -6.15913129       0.93142493      12.88057386
C       -5.46532375      -0.31210533      10.40642495
H        2.33728659      -1.31723603      -0.65840225
H        3.21248819      -3.05296294       2.97842478
H       -0.33837882      -0.63189822       2.63597968
H       -0.92567225      -2.30693047       4.06053046
H        0.07978629      -1.99365225       6.83727531
H       -0.56266583      -3.54793430       6.28819019
H       -2.32100361      -2.29853890       7.43669188
H       -2.74396118      -2.48207445       5.73062326
H       -1.85084696      -0.14643535       5.30000667
H       -1.55318227       0.02791506       7.02890405
H       -4.29859927      -0.48313018       5.74032133
H       -3.68416616       1.09540286       6.25316565
H       -3.80259502       0.47046364       8.51298144
H       -5.10263745      -3.57918684       9.55967290
H       -6.07542966      -2.04543452      13.25916074
H       -5.45204130       0.69544310      10.00377727
