162
Properties=species:S:1:pos:R:3 pbc="F F F"
C        1.78902945       1.78902945      -1.78902945
C        1.69589924       3.17127583      -1.72468222
N        2.43853655       4.00675247      -2.49121916
C        3.31022671       3.42442935      -3.35355014
C        3.48467398       2.04904902      -3.47239944
C        2.69606090       1.21484588      -2.67569928
C        4.47942800       1.55019761      -4.45023558
O        4.83296553       2.26419399      -5.38175849
N        4.97513217       0.28485891      -4.24408759
C        5.96857585      -0.29875728      -5.12527389
C        6.00209119      -1.82836741      -5.03521980
N        4.72123226      -2.44103265      -5.36135685
C        3.71404928      -2.55669744      -4.42281974
O        3.82654287      -2.17283541      -3.26327980
C        2.43342561      -3.12951698      -4.89934723
C        1.26077374      -2.81609432      -4.22063653
N        0.03376665      -3.26514615      -4.58690300
C       -0.01807937      -4.07850997      -5.66845097
C        1.10187339      -4.46452617      -6.38965420
C        2.35004827      -3.98841494      -5.99876875
H        1.00809294       3.66576453      -1.04702446
H        3.88764521       4.11997092      -3.95963062
H        2.76130459       0.13557714      -2.74954555
H        4.72534695      -0.25197473      -3.41719875
H        6.94276385       0.11460090      -4.84307605
H        5.75511118       0.01446804      -6.15351047
H        6.28912166      -2.14094690      -4.02514846
H        6.73681531      -2.22748377      -5.74108077
H        4.49008209      -2.51830602      -6.34247564
H        1.26590734      -2.17200512      -3.34436496
H       -1.01406211      -4.41899989      -5.93769971
H        3.23995333      -4.30507604      -6.53251467
C        0.98171953      -5.34412944      -7.52343599
C        0.88109067      -6.08079718      -8.47297823
Br       0.71838233      -7.27192661     -10.00830774
C       -1.78902945      -1.78902945      -1.78902945
C       -1.23187750      -2.56734105      -2.79263875
N       -1.96147826      -3.35755221      -3.61747770
C       -3.30437889      -3.36416972      -3.41965759
C       -3.94770542      -2.63153901      -2.42687802
C       -3.16816426      -1.81836432      -1.60007748
C       -5.42115642      -2.74006622      -2.31863855
O       -6.07910036      -3.11879014      -3.28102751
N       -5.98231103      -2.41506090      -1.10670674
C       -7.41212905      -2.50379578      -0.87916763
C       -7.86916011      -1.64464139       0.30485792
N       -7.54447047      -0.23438461       0.13729862
C       -6.29439825       0.26306809       0.45115858
O       -5.38690479      -0.42967822       0.89959576
C       -6.06679121       1.69880822       0.16472713
C       -4.76696313       2.14656819      -0.04492102
N       -4.44999641       3.43292589      -0.33845299
C       -5.47784700       4.31209614      -0.40611076
C       -6.80117006       3.96021132      -0.18604268
C       -7.10386465       2.63411407       0.10934850
H       -0.16277540      -2.58211263      -2.97599390
H       -3.86393259      -4.00269249      -4.10062167
H       -3.61600185      -1.19742391      -0.83300152
H       -5.40462829      -2.18363066      -0.30231203
H       -7.65139447      -3.55620995      -0.69283638
H       -7.93406671      -2.19654910      -1.79247387
H       -7.40422590      -2.00013034       1.23103303
H       -8.95555513      -1.71187153       0.41701435
H       -8.14976224       0.30346676      -0.46795623
H       -3.91708061       1.47013907       0.00867436
H       -5.19213548       5.33269280      -0.64519502
H       -8.12986466       2.34751520       0.31495750
C       -7.84823480       4.94608679      -0.25887806
C       -8.72515152       5.77175749      -0.31987770
Br     -10.14305169       7.10679719      -0.41850895
C       -1.78902945       1.78902945       1.78902945
C       -1.56958713       3.15626718       1.86600299
N       -2.30639555       3.98886697       2.64124565
C       -3.30439259       3.41967235       3.36414127
C       -3.60909242       2.06227689       3.33475313
C       -2.82369183       1.22916722       2.53374701
C       -4.73289178       1.57755044       4.16941898
O       -5.11035293       2.23792990       5.13063518
N       -5.31531776       0.38852256       3.80023835
C       -6.43595987      -0.17192133       4.53105392
C       -6.59436917      -1.67748750       4.29206191
N       -5.40924658      -2.43639833       4.66870822
C       -4.33065545      -2.56561624       3.81513236
O       -4.29735488      -2.07276728       2.69239966
C       -3.15671038      -3.29815310       4.34469858
C       -1.90144306      -3.04052420       3.80439709
N       -0.75925309      -3.63555036       4.23182077
C       -0.88277947      -4.54162256       5.23070471
C       -2.09622192      -4.88000445       5.81078394
C       -3.25467096      -4.25396309       5.35969421
H       -0.77932107       3.63985869       1.30170217
H       -3.87422720       4.11170638       3.98131316
H       -2.98988906       0.15883534       2.49770288
H       -5.03527118      -0.09539279       2.95069259
H       -7.33866029       0.35610024       4.20568027
H       -6.29556049       0.02821431       5.59931488
H       -6.80939801      -1.87151323       3.23543844
H       -7.42551830      -2.06447964       4.88937365
H       -5.28095333      -2.62103024       5.65432861
H       -1.76610533      -2.32473434       2.99689619
H        0.04914858      -4.99835115       5.55213744
H       -4.21595895      -4.52925066       5.78068367
C       -2.16282567      -5.86287924       6.86107965
C       -2.21860630      -6.68603688       7.74070231
Br      -2.30879886      -8.01701316       9.16297775
C        1.78902945      -1.78902945       1.78902945
C        1.25870203      -2.44075682       2.89239844
N        1.99152141      -3.22337430       3.72161246
C        3.30930304      -3.35506300       3.42384017
C        3.92269386      -2.75497741       2.32845118
C        3.14182504      -1.94559312       1.49918791
C        5.36983576      -2.99185851       2.11816692
O        6.07389853      -3.34926472       3.05575476
N        5.85271675      -2.80671331       0.84464862
C        7.24821445      -3.02938518       0.51749284
C        7.67037581      -2.30277727      -0.76420951
N        7.46829104      -0.86201656      -0.68875114
C        6.23797963      -0.28893603      -0.94674408
O        5.24690551      -0.93690261      -1.26682087
C        6.14404933       1.17819249      -0.76260099
C        4.90345973       1.74562964      -0.49251414
N        4.70999420       3.07217557      -0.28229513
C        5.80356918       3.86668461      -0.36502295
C        7.07391540       3.39180714      -0.65510684
C        7.25003509       2.02679965      -0.86283335
H        0.21020072      -2.35387258       3.15680862
H        3.87283088      -3.98389463       4.11052123
H        3.57099709      -1.42337003       0.65206016
H        5.23021176      -2.59029305       0.07006617
H        7.39097801      -4.10895705       0.40050574
H        7.86506182      -2.69767398       1.36035387
H        7.10546561      -2.68807869      -1.62022109
H        8.73568866      -2.46717507      -0.95245141
H        8.16017868      -0.33131433      -0.17724130
H        4.00325213       1.13906504      -0.42591992
H        5.61656564       4.92244308      -0.18948485
H        8.23104845       1.64227779      -1.12137870
C        8.19509247       4.29117088      -0.74289552
C        9.13407826       5.04438800      -0.81641853
Br      10.65233888       6.26227640      -0.93529903
C       -0.00445707       0.01189536      -1.78238275
H       -0.66409135       0.67374010      -2.43557963
H        0.65740317      -0.63156657      -2.45157240
C       -0.90989263      -0.90692880      -0.91072765
C        0.90977584       0.90977584      -0.90977584
C       -0.00465871       1.77757030       0.00794375
H       -0.66225468       2.44313916      -0.64384735
H        0.64322798       2.43503045       0.67728295
C       -1.78241447       0.00034974      -0.00472694
H       -2.45427497      -0.65498947       0.64260836
H       -2.43311707       0.67328779      -0.65473579
C       -0.91132561       0.90220522       0.91563759
C       -0.01476271      -0.02253852       1.78660255
H       -0.67934791      -0.69751639       2.42135241
H        0.63392994       0.61504881       2.47327442
C        0.01484550      -1.77751727      -0.01636693
H        0.67870853      -2.42144646      -0.68295456
H       -0.62264859      -2.45592969       0.64226336
C        1.78714474       0.01002794       0.00389507
H        2.44202412       0.67113390       0.66197326
H        2.45385902      -0.65136977      -0.64189061
C        0.91606151      -0.90478549       0.90901405
