133
Properties=species:S:1:pos:R:3 pbc="F F F"
C        0.00000000       0.00000000       0.00000000
C        0.87912543       0.87912543      -0.87912543
C        0.78599522       2.26137181      -0.81477819
N        1.52863252       3.09684844      -1.58131513
C        2.40032269       2.51452533      -2.44364612
C        2.57476996       1.13914500      -2.56249542
C        1.78615688       0.30494186      -1.76579525
C        3.56952397       0.64029359      -3.54033156
O        3.92306150       1.35428997      -4.47185447
N        4.06522815      -0.62504511      -3.33418357
C        5.05867183      -1.20866131      -4.21536986
C        5.09218716      -2.73827144      -4.12531578
N        3.81132824      -3.35093668      -4.45145283
C        2.80414525      -3.46660146      -3.51291572
O        2.91663884      -3.08273944      -2.35337577
C        1.52352158      -4.03942101      -3.98944320
C        0.35086971      -3.72599834      -3.31073251
N       -0.87613737      -4.17505017      -3.67699897
C       -0.92798340      -4.98841400      -4.75854694
C        0.19196936      -5.37443020      -5.47975018
Br       0.03463941      -6.52618632      -6.96432869
C        1.44014425      -4.89831896      -5.08886472
H        0.09818892       2.75586050      -0.13712044
H        2.97774118       3.21006690      -3.04972659
H        1.85140057      -0.77432688      -1.83964152
H        3.81544293      -1.16187875      -2.50729473
H        6.03285982      -0.79530312      -3.93317202
H        4.84520715      -0.89543599      -5.24360644
H        5.37921763      -3.05085092      -3.11524443
H        5.82691128      -3.13738779      -4.83117675
H        3.58017806      -3.42821005      -5.43257162
H        0.35600332      -3.08190914      -2.43446093
H       -1.92396614      -5.32890392      -5.02779569
H        2.33004931      -5.21498006      -5.62261064
C       -0.87912543      -0.87912543      -0.87912543
C       -0.59754381      -2.22794517      -1.03665625
N       -1.33165313      -3.05843205      -1.81671092
C       -2.39193182      -2.50656786      -2.45999445
C       -2.76051606      -1.16961515      -2.34627916
C       -1.97664098      -0.33738546      -1.54286755
C       -3.94789251      -0.70300647      -3.09925014
O       -4.34147639      -1.33422822      -4.07350133
N       -4.56789170       0.43520998      -2.64168488
C       -5.75048777       0.97244716      -3.28733977
C       -5.96962903       2.45448029      -2.96408277
N       -4.84375782       3.29057129      -3.35865786
C       -3.73042823       3.43313203      -2.55316330
O       -3.61566460       2.88850649      -1.46011707
C       -2.62225662       4.24979495      -3.10108211
C       -1.32989181       4.03079746      -2.63650954
N       -0.24146054       4.70368889      -3.08803978
C       -0.46001680       5.64984437      -4.03197712
C       -1.71663513       5.95347432      -4.53412853
Br      -1.93681585       7.29978790      -5.83575384
C       -2.81856060       5.24765887      -4.05978827
H        0.24322587      -2.69733524      -0.53706048
H       -2.95823651      -3.19598899      -3.08330917
H       -2.19273818       0.71999462      -1.44397165
H       -4.26860035       0.89086029      -1.78311883
H       -6.60852342       0.38363713      -2.94584244
H       -5.65542245       0.83206837      -4.37002353
H       -6.13943551       2.58550771      -1.88968334
H       -6.84816306       2.82702681      -3.49956400
H       -4.77528567       3.52934901      -4.33860298
H       -1.11863344       3.28438028      -1.87430194
H        0.43084971       6.16884542      -4.37462076
H       -3.81242925       5.49351922      -4.41876986
C       -0.87912543       0.87912543       0.87912543
C       -2.25797968       0.73028911       0.87387642
N       -3.09458322       1.49143257       1.62078031
C       -2.51675648       2.43696304       2.40477461
C       -1.14340042       2.64465328       2.48835668
C       -0.30886534       1.85058895       1.69743970
C       -0.64872461       3.70797983       3.39344467
O       -1.39653833       4.61687204       3.73579556
N        0.65306960       3.60500480       3.82243140
C        1.23800483       4.57678701       4.72659820
C        2.76966896       4.57657122       4.67232924
N        3.28714715       4.85889168       3.34009986
C        3.40175157       3.86912228       2.38308880
O        3.09602316       2.69849102       2.58480732
C        3.87041044       4.29904454       1.04490967
C        3.53219082       3.53361273      -0.06581802
N        3.88727060       3.84983224      -1.33675021
C        4.62920642       4.97099004      -1.49963407
C        5.03417394       5.77972077      -0.44825748
Br       6.08283361       7.31545990      -0.75984450
C        4.65483368       5.43870475       0.84681893
H       -2.74896629      -0.01502909       0.25723266
H       -3.21362587       3.03618726       2.98772154
H        0.76589508       1.98986927       1.69274101
H        1.22392276       2.79654464       3.58823702
H        0.89893222       4.33104358       5.73861736
H        0.85126611       5.57057307       4.47407065
H        3.15886964       3.60531425       4.99716653
H        3.16658762       5.34738631       5.33990154
H        3.29139460       5.82698670       3.04894754
H        2.94381177       2.62386398       0.02850290
H        4.89520372       5.19833902      -2.52820967
H        4.98890448       6.04270454       1.68387983
C        0.87912543      -0.87912543       0.87912543
C        2.26145320      -0.80973724       0.79095477
N        3.09701068      -1.57595672       1.53382870
C        2.51467251      -2.44325544       2.40056618
C        1.13911974      -2.56740036       2.56989028
C        0.30488941      -1.77085605       1.78114853
C        0.64022782      -3.55033959       3.55958171
O        1.35620143      -4.48062422       3.91238028
N       -0.62749635      -3.35021641       4.05164654
C       -1.21147891      -4.23679203       5.04006726
C       -2.74149435      -4.15207980       5.06864606
N       -3.34865831      -4.47591515       3.78458755
C       -3.46409821      -3.53433137       2.78022634
O       -3.08460015      -2.37387920       2.89799613
C       -4.03090217      -4.00842007       1.49602587
C       -3.71580357      -3.32462643       0.32678103
N       -4.15940245      -3.68821635      -0.90300247
C       -4.96887185      -4.77235277      -0.96133137
C       -5.35623741      -5.49870580       0.15482095
Br      -6.50235309      -6.98666254      -0.01152767
C       -4.88573616      -5.11047730       1.40594887
H        2.75596284      -0.12804007       0.10716695
H        3.21031096      -3.04893201       2.97829171
H       -0.77433644      -1.84861244       1.84243921
H       -1.16630505      -2.52431503       3.80284893
H       -0.80242131      -3.95652498       6.01662505
H       -0.89400296      -5.26321464       4.82416592
H       -3.05851355      -3.14407221       5.35805248
H       -3.14069638      -4.86181487       5.79958175
H       -3.42177758      -5.45649403       3.54982319
H       -3.07474350      -2.44618219       0.33711642
H       -5.30503197      -5.03934721      -1.95938960
H       -5.20360412      -5.64834961       2.29293439
