198
Properties=species:S:1:pos:R:3 pbc="F F F"
C        1.78834094       1.78834094      -1.78834094
C        2.52667994       1.24101177      -2.82663239
N        3.33568809       1.96656544      -3.63577194
C        3.39857613       3.30085906      -3.39373265
C        2.67313964       3.94246684      -2.39584395
C        1.86407242       3.15965734      -1.56721108
C        2.74672944       5.40490090      -2.16103053
O        2.45261655       5.85143690      -1.05765489
N        3.12358159       6.19623682      -3.22518676
C        3.20333272       7.64067724      -3.11595176
C        4.35440087       8.12729705      -2.23248314
C        5.71599606       7.61123950      -2.70191597
C        6.84603908       8.10624243      -1.79517986
C        8.22663176       7.63253245      -2.25058001
N        8.40556162       6.20170670      -2.07880681
C        8.17115845       5.30901193      -3.10486046
O        7.83767531       5.64912000      -4.23484322
C        8.34878809       3.86967639      -2.80657224
C        8.20145188       3.34203650      -1.52952407
N        8.35410353       2.02763101      -1.23183117
C        8.64196950       1.20096538      -2.26632102
C        8.78337200       1.63242347      -3.57645441
C        8.63259790       2.98668868      -3.85295714
H        2.49642675       0.17767104      -3.04516479
H        4.08896285       3.83293193      -4.04155809
H        1.30037073       3.62375187      -0.76047470
H        3.21778044       5.80405315      -4.15158946
H        2.25060663       8.00673246      -2.71726259
H        3.31672223       8.03331251      -4.13251809
H        4.18729418       7.81471380      -1.19529809
H        4.35693694       9.22405476      -2.23500671
H        5.89845097       7.93681215      -3.73284932
H        5.70284504       6.51667030      -2.70100028
H        6.66353311       7.77228269      -0.76607439
H        6.84086530       9.20280995      -1.78392959
H        8.99578421       8.11593126      -1.63859327
H        8.40665704       7.90896536      -3.29486502
H        8.76954511       5.88809710      -1.19004314
H        7.92668224       3.95666393      -0.67769024
H        8.75268908       0.15428083      -1.99794097
H        8.73248052       3.36041186      -4.86970853
C        9.08185788       0.69871864      -4.63130106
C        9.33183980      -0.08325916      -5.51473514
Br       9.73603942      -1.34765112      -6.94317332
C       -1.78834094      -1.78834094      -1.78834094
C       -2.28234635      -1.31682515      -2.99515259
N       -3.07812881      -2.04423934      -3.81565733
C       -3.38377086      -3.30224663      -3.40715035
C       -2.91180076      -3.87059942      -2.22905025
C       -2.10955440      -3.08411455      -1.39727189
C       -3.24720432      -5.25360818      -1.81184837
O       -3.18054611      -5.55574022      -0.62542201
N       -3.59603022      -6.14458218      -2.80439277
C       -3.91750537      -7.52902915      -2.51342721
C       -5.24055825      -7.70830345      -1.76531937
C       -6.42651903      -7.09244100      -2.51019150
C       -7.73350649      -7.27909525      -1.73485964
C       -8.94665957      -6.69983816      -2.46324650
N       -8.91859630      -5.24899511      -2.51848373
C       -8.40831138      -4.57029633      -3.60642313
O       -7.98208122      -5.12716869      -4.61238862
C       -8.39486352      -3.09128549      -3.53888772
C       -8.34122739      -2.39323702      -2.33854804
N       -8.32304294      -1.03989891      -2.25062386
C       -8.33281485      -0.35596584      -3.42047522
C       -8.36091916      -0.96599726      -4.66533347
C       -8.39013462      -2.35470701      -4.72740210
H       -2.05470377      -0.31563197      -3.34892684
H       -4.05489993      -3.83107356      -4.07747939
H       -1.74162129      -3.48708835      -0.45588766
H       -3.49989045      -5.89482805      -3.77870455
H       -3.09802385      -7.95369637      -1.92288146
H       -3.95205941      -8.05844853      -3.47204490
H       -5.16894917      -7.26122550      -0.76713140
H       -5.41627137      -8.78093765      -1.61878939
H       -6.51604533      -7.54914187      -3.50292523
H       -6.24055229      -6.02364749      -2.65631583
H       -7.64235389      -6.81448842      -0.74504788
H       -7.90352588      -8.35041379      -1.57366518
H       -9.85872511      -6.97095233      -1.92063131
H       -9.02421403      -7.11092658      -3.47534681
H       -9.34598956      -4.75205852      -1.74963727
H       -8.28582398      -2.89692997      -1.37828246
H       -8.31200018       0.72520200      -3.31811270
H       -8.40846121      -2.86750039      -5.68663931
C       -8.36136347      -0.17915971      -5.87135440
C       -8.36173559       0.47981673      -6.88139692
Br      -8.36233726       1.54532591      -8.51455026
C       -1.78834094       1.78834094       1.78834094
C       -1.51267302       3.13844745       1.94320362
N       -2.24830474       3.97015083       2.71956991
C       -3.31070696       3.42075311       3.36170777
C       -3.68162105       2.08572802       3.24410135
C       -2.88801234       1.25234154       2.45058695
C       -4.85669591       1.51219933       3.94376563
O       -4.89806088       0.30566162       4.15798584
N       -5.86676844       2.38163534       4.29660139
C       -7.07340896       1.92587304       4.96067973
C       -6.84495003       1.46661979       6.40261125
C       -6.20590960       2.55126373       7.27197820
C       -5.98142442       2.06105564       8.70498132
C       -5.36902101       3.12931768       9.61140554
N       -3.99457806       3.43521877       9.25627830
C       -3.67344448       4.48794270       8.42364366
O       -4.50441098       5.25984808       7.95737947
C       -2.24243554       4.68432343       8.09827775
C       -1.31910025       3.64590104       8.10801115
N       -0.00500225       3.79924514       7.80931832
C        0.39604545       5.04558133       7.45972001
C       -0.45719597       6.13681869       7.39823523
C       -1.79757756       5.95477938       7.71988679
H       -0.67065579       3.60660365       1.44200314
H       -3.84517154       4.11652583       4.00175550
H       -3.13366604       0.19672205       2.35420921
H       -5.85817006       3.33964899       3.97560400
H       -7.49748481       1.10380650       4.37331037
H       -7.78537226       2.75837325       4.93880733
H       -6.20989878       0.57333135       6.41407595
H       -7.81023683       1.17308998       6.83267160
H       -6.84579441       3.44153380       7.28078423
H       -5.24604859       2.84146876       6.83299827
H       -5.33488818       1.17464310       8.69235891
H       -6.94324833       1.75244601       9.13191050
H       -5.34713006       2.76058297      10.64259571
H       -5.97154396       4.04368135       9.59526212
H       -3.27292029       2.88029828       9.69446678
H       -1.60140698       2.62276188       8.33686756
H        1.45179004       5.13589814       7.22080278
H       -2.49662773       6.78728206       7.67869112
C        0.03295041       7.43417593       7.01065206
C        0.44344800       8.52071262       6.68605116
Br       1.10718788      10.27755055       6.16119895
C        1.78834094      -1.78834094       1.78834094
C        1.39622954      -3.07576624       2.12232831
N        2.12671241      -3.90221156       2.90910151
C        3.30530085      -3.41428909       3.37357790
C        3.79423649      -2.14877147       3.06844247
C        3.00468055      -1.31583861       2.27042167
C        5.09315316      -1.64391488       3.57559283
O        5.28090404      -0.43434389       3.64646041
N        6.04307690      -2.58177496       3.92015331
C        7.35719407      -2.20050471       4.40226295
C        7.34137923      -1.57419912       5.79860272
C        6.69802830      -2.48549119       6.84563203
C        6.68827522      -1.82994859       8.22923756
C        6.07711298      -2.72430084       9.30833040
N        4.64736822      -2.90705475       9.13165216
C        4.12869394      -3.99575737       8.46057953
O        4.81873533      -4.90017109       8.00273212
C        2.65754185      -4.06083525       8.30665962
C        1.85158243      -2.92893749       8.29249254
N        0.50337414      -2.96201100       8.14818057
C       -0.05924836      -4.18393541       7.98456885
C        0.66620508      -5.36535297       7.96069184
C        2.04590714      -5.30456233       8.12177426
H        0.45967806      -3.49403283       1.76555169
H        3.83533234      -4.09745435       4.03066618
H        3.34382650      -0.31012853       2.03064227
H        5.90087151      -3.56027752       3.71227403
H        7.79334092      -1.49572933       3.68553143
H        7.97379321      -3.10617139       4.40258824
H        6.80579482      -0.61822088       5.77329037
H        8.37396235      -1.34971619       6.09231987
H        7.24099259      -3.43697383       6.89014602
H        5.67013539      -2.70820898       6.54217125
H        6.13791271      -0.88191303       8.18206445
H        7.71861350      -1.59048741       8.51850393
H        6.20974112      -2.25259425      10.28797337
H        6.57787635      -3.69790012       9.33471096
H        4.04013343      -2.23233262       9.57521929
H        2.26049065      -1.92643159       8.37411417
H       -1.13893682      -4.17790295       7.86594474
H        2.64755469      -6.21073246       8.10431376
C        0.00603460      -6.63147271       7.77437026
C       -0.54685817      -7.69184800       7.61832594
Br      -1.44083902      -9.40638516       7.36601548
C       -0.00445707       0.01189536      -1.78238275
H       -0.66409135       0.67374010      -2.43557963
H        0.65740317      -0.63156657      -2.45157240
C       -0.90989263      -0.90692880      -0.91072765
C        0.90977584       0.90977584      -0.90977584
C       -0.00465871       1.77757030       0.00794375
H       -0.66225468       2.44313916      -0.64384735
H        0.64322798       2.43503045       0.67728295
C       -1.78241447       0.00034974      -0.00472694
H       -2.45427497      -0.65498947       0.64260836
H       -2.43311707       0.67328779      -0.65473579
C       -0.91132561       0.90220522       0.91563759
C       -0.01476271      -0.02253852       1.78660255
H       -0.67934791      -0.69751639       2.42135241
H        0.63392994       0.61504881       2.47327442
C        0.01484550      -1.77751727      -0.01636693
H        0.67870853      -2.42144646      -0.68295456
H       -0.62264859      -2.45592969       0.64226336
C        1.78714474       0.01002794       0.00389507
H        2.44202412       0.67113390       0.66197326
H        2.45385902      -0.65136977      -0.64189061
C        0.91606151      -0.90478549       0.90901405
