169
Properties=species:S:1:pos:R:3 pbc="F F F"
C        0.00000000       0.00000000       0.00000000
C        0.87843691       0.87843691      -0.87843691
C        1.61677591       0.33110774      -1.91672836
N        2.42578407       1.05666142      -2.72586791
C        2.48867211       2.39095503      -2.48382863
C        1.76323561       3.03256282      -1.48593992
C        0.95416840       2.24975331      -0.65730705
C        1.83682542       4.49499688      -1.25112651
O        1.54271253       4.94153288      -0.14775086
N        2.21367757       5.28633280      -2.31528273
C        2.29342870       6.73077322      -2.20604774
C        3.44449685       7.21739303      -1.32257912
C        4.80609204       6.70133547      -1.79201195
C        5.93613505       7.19633841      -0.88527584
C        7.31672774       6.72262843      -1.34067599
N        7.49565760       5.29180267      -1.16890279
C        7.26125443       4.39910790      -2.19495644
O        6.92777129       4.73921598      -3.32493919
C        7.43888407       2.95977237      -1.89666822
C        7.29154785       2.43213248      -0.61962005
N        7.44419950       1.11772699      -0.32192715
C        7.73206548       0.29106135      -1.35641700
C        7.87346797       0.72251945      -2.66655039
Br       8.26426207      -0.49993816      -4.04761352
C        7.72269388       2.07678466      -2.94305312
H        1.58652272      -0.73223298      -2.13526077
H        3.17905882       2.92302791      -3.13165407
H        0.39046670       2.71384785       0.14942932
H        2.30787641       4.89414913      -3.24168543
H        1.34070261       7.09682843      -1.80735857
H        2.40681821       7.12340849      -3.22261407
H        3.27739016       6.90480978      -0.28539406
H        3.44703291       8.31415073      -1.32510269
H        4.98854694       7.02690813      -2.82294530
H        4.79294101       5.60676628      -1.79109625
H        5.75362909       6.86237866       0.14382964
H        5.93096127       8.29290593      -0.87402557
H        8.08588019       7.20602724      -0.72868925
H        7.49675302       6.99906133      -2.38496100
H        7.85964109       4.97819307      -0.28013911
H        7.01677822       3.04675990       0.23221378
H        7.84278506      -0.75562320      -1.08803694
H        7.82257650       2.45050783      -3.95980451
C       -0.87843691      -0.87843691      -0.87843691
C       -1.81442315      -1.73349960      -0.31668927
N       -2.61703231      -2.54857133      -1.04270976
C       -2.47621070      -2.49538097      -2.39186410
C       -1.58683727      -1.64946991      -3.04543117
C       -0.76037053      -0.83696726      -2.26389097
C       -1.46245000      -1.59819104      -4.52230776
O       -0.42164326      -1.18703755      -5.02331547
N       -2.55511325      -1.99875496      -5.26142489
C       -2.55373287      -1.96473290      -6.71178389
C       -1.62988924      -3.00481016      -7.34976960
C       -1.95750318      -4.43279476      -6.90914151
C       -1.01270581      -5.44953835      -7.55550514
C       -1.32830256      -6.89224242      -7.15948717
N       -1.03258072      -7.16049484      -5.76328751
C       -1.99993395      -7.07246084      -4.78292398
O       -3.17426662      -6.80462374      -5.01303610
C       -1.57784770      -7.33013893      -3.38733803
C       -0.27749199      -7.12199687      -2.94381151
N        0.13241581      -7.34582442      -1.67044503
C       -0.81060937      -7.77294927      -0.79598519
C       -2.13676640      -7.98475659      -1.14101482
Br      -3.38595337      -8.57004706       0.14406300
C       -2.52858749      -7.75824673      -2.45569743
H       -1.95070478      -1.79764598       0.75880025
H       -3.11189230      -3.19392076      -2.92792774
H       -0.03543810      -0.17969975      -2.73974737
H       -3.43871040      -2.19334637      -4.81165420
H       -2.25506536      -0.95969906      -7.03012519
H       -3.58699278      -2.12853385      -7.03731414
H       -0.58628804      -2.78017888      -7.10112708
H       -1.71802688      -2.92797683      -8.44028262
H       -2.99479140      -4.67125533      -7.17235364
H       -1.87190540      -4.49904079      -5.81985735
H        0.02341748      -5.21177837      -7.28381722
H       -1.08769259      -5.36397528      -8.64622490
H       -0.70184115      -7.57405878      -7.74469674
H       -2.37519767      -7.13289621      -7.37268147
H       -0.09795128      -7.47560961      -5.54441240
H        0.50145994      -6.73756498      -3.59521930
H       -0.45383561      -7.93795867       0.21659548
H       -3.56153141      -7.91000414      -2.76135330
C       -0.87843691       0.87843691       0.87843691
C       -1.86209571       1.68133466       0.32118165
N       -2.66772192       2.49371931       1.04687217
C       -2.47972336       2.49241529       2.39131711
C       -1.53984610       1.70029069       3.04160157
C       -0.71235190       0.88933921       2.25953765
C       -1.36402305       1.70479842       4.51412733
O       -0.29320432       1.34670168       4.99209027
N       -2.44445679       2.09384126       5.27699505
C       -2.39299193       2.11051301       6.72674470
C       -1.48501796       3.20277389       7.29667714
C       -1.87692835       4.60265630       6.81985480
C       -0.94692869       5.67260977       7.39821084
C       -1.32584561       7.08915604       6.96503050
N       -1.08690516       7.31834536       5.55111254
C       -2.08310031       7.16359295       4.60862551
O       -3.23894599       6.86450786       4.88847261
C       -1.71755462       7.38650219       3.19126784
C       -0.42642133       7.20697097       2.70990808
N       -0.06773796       7.39992354       1.41619214
C       -1.05403854       7.76423872       0.56126656
C       -2.37439148       7.94312416       0.94502216
Br      -3.68585613       8.44076876      -0.31468747
C       -2.71352288       7.74954387       2.27946490
H       -2.03671529       1.70328381      -0.75044860
H       -3.12095688       3.18740510       2.92537882
H        0.05070420       0.27389099       2.73169843
H       -3.34896715       2.24271914       4.85202469
H       -2.04887477       1.12784035       7.06817449
H       -3.41977508       2.25064329       7.08242240
H       -0.44319090       3.00491643       7.01948668
H       -1.53360413       3.16111063       8.39157157
H       -2.91244121       4.81504798       7.11091117
H       -1.83046822       4.63370197       5.72663336
H        0.08711041       5.46058283       7.09870569
H       -0.98206790       5.62267765       8.49314722
H       -0.70418220       7.81171020       7.50470427
H       -2.37271693       7.30166919       7.20638923
H       -0.17175118       7.65696291       5.28925919
H        0.38698935       6.87198378       3.34632991
H       -0.73758189       7.90575057      -0.46813365
H       -3.74024023       7.87696197       2.61568664
C        0.87843691      -0.87843691       0.87843691
C        0.38904903      -1.41659921       2.05896378
N        1.12337101      -2.19531446       2.88962793
C        2.40251578      -2.44873182       2.51220817
C        2.97047878      -1.97772479       1.33353479
C        2.18996571      -1.16072379       0.51053926
C        4.36627718      -2.28152878       0.93514285
O        4.94422870      -1.53339895       0.15436862
N        4.93593813      -3.42422796       1.45512700
C        6.28537103      -3.83221294       1.11266568
C        7.36885758      -2.92121415       1.69439727
C        7.28184420      -2.80053905       3.21705620
C        8.37119264      -1.87722552       3.76933113
C        8.33261622      -1.75451025       5.29290568
N        7.16238312      -1.03313947       5.76084047
C        6.01276260      -1.68636844       6.15618773
O        5.90290185      -2.90744643       6.18157817
C        4.86720089      -0.84906248       6.57906128
C        4.67217954       0.44741080       6.11853164
N        3.62911493       1.23219295       6.48693166
C        2.72668741       0.68258331       7.33543974
C        2.82494302      -0.60997368       7.82762111
Br       1.51624095      -1.29872683       8.99696965
C        3.90983392      -1.38983924       7.44285849
H       -0.62974306      -1.23243853       2.38685504
H        2.96230674      -3.04335753       3.22807652
H        2.60858067      -0.75414580      -0.40784125
H        4.37958037      -4.08561869       1.97851192
H        6.36887656      -3.85564506       0.02036799
H        6.41470151      -4.85527302       1.48286624
H        7.29689998      -1.92278922       1.24790481
H        8.35020597      -3.32246857       1.41361179
H        7.37263267      -3.79413099       3.67163671
H        6.29816913      -2.40426884       3.48836557
H        8.27240983      -0.88222567       3.31754261
H        9.35312782      -2.26808583       3.47667912
H        9.20376074      -1.18407119       5.63276474
H        8.37510556      -2.74276836       5.76290143
H        7.24460493      -0.02959682       5.84377153
H        5.34241226       0.91428668       5.40319876
H        1.90023641       1.33273095       7.60769335
H        4.01727728      -2.40967060       7.80594096
