173
Properties=species:S:1:pos:R:3 pbc="F F F"
C        0.00000000       0.00000000       0.00000000
O        5.33608544       2.69710748      -8.17003825
C        5.47782152       3.91101920      -8.27234252
C        6.55737191       4.62707740      -7.48340495
C        6.02307829       5.30603656      -6.22516001
C        5.44079443       4.31296293      -5.21177356
C        5.00892316       5.02948297      -3.93416152
C        4.49462532       4.09736407      -2.84693989
O        5.04619994       4.06750628      -1.74997823
N        3.37151795       3.38305755      -3.21782290
C        2.57874310       2.55417675      -2.39713076
C        2.71599731       2.47349842      -1.01030166
C        1.87364865       1.64687640      -0.25801357
C        0.88619803       0.88619803      -0.88619803
C        0.73981163       0.96030642      -2.27353625
Cl      -0.45271881       0.05286839      -3.13544120
C        1.57945158       1.79635551      -3.02142480
N        4.69614926       4.76593107      -9.03029873
C        3.67555978       4.39988979      -9.93526355
C        3.42454276       3.08306460     -10.32584433
C        2.40536356       2.79088962     -11.23917357
C        1.62087211       3.81488829     -11.77179520
C        1.86701256       5.13662188     -11.39057174
Cl       0.94291494       6.46712923     -11.99474895
C        2.89458359       5.42507861     -10.48251920
H        7.02970427       5.37336629      -8.13418444
H        7.33754811       3.89985487      -7.22859524
H        5.25758558       6.04453013      -6.49161882
H        6.84813743       5.85677744      -5.75577113
H        6.18311753       3.54239859      -4.96990626
H        4.58546908       3.79666110      -5.65990827
H        4.22473746       5.76605500      -4.14904999
H        5.86092544       5.58152529      -3.51853928
H        3.10581726       3.42146485      -4.19460120
H        3.46093723       3.05581288      -0.47607037
H        2.00122522       1.61047429       0.82180136
H        1.45145133       1.83971091      -4.10057860
H        4.85246936       5.75940481      -8.90598029
H        4.01669323       2.25249504      -9.95293221
H        2.23927618       1.75525429     -11.52851949
H        3.07026900       6.45994632     -10.19962489
C        0.58528334       3.44692233     -12.70225583
C       -0.28202224       3.13875084     -13.48151660
Br      -1.68438203       2.64046361     -14.74151535
O       -2.48414855      -7.91313363      -5.80594900
C       -3.69337242      -8.11159800      -5.85621282
C       -4.56538137      -7.30396495      -6.79850795
C       -5.29475877      -6.15955244      -6.09996364
C       -4.34008216      -5.11262057      -5.51282819
C       -5.11748963      -3.94394127      -4.91113674
C       -4.23545274      -2.82359342      -4.37988310
O       -4.34511426      -1.68682391      -4.83174628
N       -3.39557930      -3.21999037      -3.35682873
C       -2.56925523      -2.39627608      -2.56451929
C       -2.61520192      -1.00122194      -2.58337354
C       -1.78107637      -0.24967458      -1.74778766
C       -0.88619803      -0.88619803      -0.88619803
C       -0.83287164      -2.28191917      -0.85886350
Cl       0.24519041      -3.15413552       0.17335433
C       -1.67647327      -3.03016458      -1.69059403
N       -4.40990178      -9.00451335      -5.07796394
C       -3.88107821      -9.95377681      -4.17585810
C       -2.51950045     -10.24431744      -4.06963380
C       -2.06343739     -11.20837260      -3.16361675
C       -2.96603542     -11.89296853      -2.34855165
C       -4.33128174     -11.61255496      -2.45036948
Cl      -5.51977133     -12.40703561      -1.47798617
C       -4.78397155     -10.65271668      -3.36549316
H       -5.29500866      -7.97792176      -7.26432459
H       -3.93419290      -6.92201845      -7.60978688
H       -5.93749240      -6.55286534      -5.30337680
H       -5.95370520      -5.67520000      -6.83178080
H       -3.66142588      -4.74275038      -6.29124612
H       -3.71435745      -5.58143788      -4.74624312
H       -5.76087459      -4.28742637      -4.09154148
H       -5.77572673      -3.51086451      -5.67439876
H       -3.32982376      -4.21477987      -3.17727967
H       -3.30364353      -0.46190124      -3.22727572
H       -1.84492360       0.83588113      -1.78085569
H       -1.61954431      -4.11572054      -1.65647598
H       -5.42020951      -8.95712275      -5.14052219
H       -1.77860373      -9.75132342      -4.69219334
H       -0.99686969     -11.41660257      -3.10957770
H       -5.85010632     -10.45003472      -3.42969916
C       -2.43186892     -12.86859764      -1.43399494
C       -1.98450447     -13.68568703      -0.66805370
Br      -1.26115399     -15.00685145       0.57040851
O       -6.29017791       2.33002031       7.58303296
C       -6.25470442       3.51702766       7.88945116
C       -7.03821687       4.54014390       7.08949349
C       -6.17484211       5.29621080       6.08322195
C       -5.57601440       4.38408957       5.00542695
C       -4.80228389       5.19900438       3.97127937
C       -4.24571764       4.37050849       2.82270314
O       -4.57738168       4.61962365       1.66667913
N       -3.34060626       3.40703391       3.22475823
C       -2.54826476       2.58368923       2.39809661
C       -2.43160989       2.75104246       1.01714506
C       -1.60381413       1.90967578       0.26504871
C       -0.88619803       0.88619803       0.88619803
C       -0.99513955       0.71066924       2.26784551
Cl      -0.14624742      -0.53084237       3.12018573
C       -1.81798529       1.56135549       3.01789111
N       -5.50528102       4.07758802       8.90951003
C       -4.74544832       3.38645566       9.87880914
C       -4.78458459       2.00100263      10.04786447
C       -4.01600687       1.38039555      11.03902433
C       -3.19443994       2.13995688      11.87315878
C       -3.15157150       3.52776229      11.71487239
Cl      -2.15972870       4.54660901      12.69845541
C       -3.92986883       4.14551871      10.72679385
H       -7.50094496       5.24971131       7.78659873
H       -7.86118832       4.02338362       6.58142627
H       -5.36652019       5.82482802       6.60238632
H       -6.79837459       6.06037041       5.60194099
H       -6.37161411       3.81611518       4.50769309
H       -4.91367694       3.65094179       5.47741973
H       -3.96639211       5.73038673       4.44306360
H       -5.46189511       5.96101146       3.53808344
H       -3.26188146       3.23932927       4.22067258
H       -2.96023079       3.54090393       0.49168576
H       -1.52886927       2.06949831      -0.80846943
H       -1.89129360       1.40829578       4.09215146
H       -5.47595526       5.08961133       8.95228787
H       -5.41935599       1.36720710       9.43555740
H       -4.07377160       0.29953852      11.14973985
H       -3.88274782       5.22642672      10.62066566
C       -2.42520113       1.44008443      12.86917595
C       -1.78096362       0.85394125      13.70334032
Br      -0.73928607      -0.09380271      15.05211357
O        7.83031224      -5.93732299       2.43559595
C        8.05715225      -5.96344619       3.64058480
C        7.24882379      -6.86444954       4.55458093
C        6.13974229      -6.12072785       5.29380472
C        5.08405479      -5.53111021       4.35036592
C        3.94957880      -4.88243708       5.14055176
C        2.82096305      -4.34512413       4.27284209
O        1.67672514      -4.76617460       4.42078471
N        3.22102265      -3.35253926       3.39883650
C        2.39649149      -2.56027388       2.57328523
C        1.00293554      -2.54375450       2.65310736
C        0.25137455      -1.71019753       1.81696654
C        0.88619803      -0.88619803       0.88619803
C        2.28044261      -0.89443539       0.79877630
Cl       3.15041131       0.08991249      -0.32490804
C        3.02902875      -1.72383106       1.64437208
N        8.98579354      -5.19040965       4.31617588
C        9.94313395      -4.32482407       3.74275511
C       10.20261061      -4.25843476       2.37240632
C       11.17661468      -3.38755948       1.87125258
C       11.90251141      -2.56815220       2.73689199
C       11.65335157      -2.63029842       4.11055620
Cl      12.49986044      -1.64951144       5.25542124
C       10.68326077      -3.51045938       4.60846125
H        7.92913694      -7.32905436       5.27906372
H        6.83215453      -7.68099996       3.95284374
H        6.56770262      -5.31886327       5.90716864
H        5.65431657      -6.82442377       5.98194566
H        4.67907664      -6.31625337       3.70009236
H        5.55560382      -4.79148900       3.69494564
H        4.32830820      -4.05633830       5.75519594
H        3.51462741      -5.61883562       5.82752697
H        4.21791509      -3.19910319       3.30486502
H        0.46540564      -3.15753026       3.36988459
H       -0.83276636      -1.71505545       1.90760906
H        4.11336498      -1.71775790       1.56061796
H        8.96174352      -5.22755010       5.32856083
H        9.67678851      -4.88627943       1.65905253
H       11.35982345      -3.36423182       0.79899470
H       10.50534241      -3.54409464       5.68040315
C       12.88636917      -1.69089868       2.15719366
C       13.71035004      -0.95619884       1.67169630
Br      15.04265743       0.23174864       0.88668815
