194
Properties=species:S:1:pos:R:3 pbc="F F F"
O        6.24598947       3.60701151      -9.07994227
C        6.38772555       4.82092322      -9.18224655
C        7.46727593       5.53698143      -8.39330898
C        6.93298232       6.21594058      -7.13506403
C        6.35069845       5.22286696      -6.12167758
C        5.91882718       5.93938699      -4.84406554
C        5.40452934       5.00726809      -3.75684391
O        5.95610396       4.97741030      -2.65988226
N        4.28142197       4.29296158      -4.12772693
C        3.48864712       3.46408077      -3.30703478
C        3.62590134       3.38340245      -1.92020569
C        2.78355268       2.55678042      -1.16791759
C        1.79610206       1.79610206      -1.79610206
C        1.64971565       1.87021045      -3.18344028
Cl       0.45718522       0.96277241      -4.04534523
C        2.48935561       2.70625953      -3.93132882
N        5.60605329       5.67583509      -9.94020276
C        4.58546381       5.30979381     -10.84516758
C        4.33444678       3.99296862     -11.23574836
C        3.31526758       3.70079364     -12.14907759
C        2.53077613       4.72479231     -12.68169923
C        2.77691659       6.04652591     -12.30047577
Cl       1.85281896       7.37703326     -12.90465297
C        3.80448761       6.33498264     -11.39242322
H        7.93960830       6.28327032      -9.04408847
H        8.24745213       4.80975889      -8.13849927
H        6.16748960       6.95443416      -7.40152284
H        7.75804146       6.76668146      -6.66567515
H        7.09302156       4.45230261      -5.87981028
H        5.49537311       4.70656512      -6.56981230
H        5.13464148       6.67595902      -5.05895401
H        6.77082947       6.49142931      -4.42844330
H        4.01572128       4.33136887      -5.10450522
H        4.37084125       3.96571691      -1.38597440
H        2.91112925       2.52037832      -0.08810266
H        2.36135535       2.74961494      -5.01048262
H        5.76237338       6.66930883      -9.81588432
H        4.92659726       3.16239906     -10.86283623
H        3.14918021       2.66515832     -12.43842351
H        3.98017302       7.36985034     -11.10952891
C        1.49518737       4.35682636     -13.61215985
C        0.62788178       4.04865487     -14.39142062
Br      -0.77447800       3.55036763     -15.65141938
O       -4.92890648      -9.46348402      -4.54055275
C       -6.01378023      -9.29114146      -5.08597363
C       -6.08304830      -8.79640361      -6.51811443
C       -6.36671378      -7.29996452      -6.61730864
C       -5.25934485      -6.43948570      -5.99641244
C       -5.54281208      -4.95356319      -6.20590444
C       -4.44510869      -4.03623243      -5.68730022
O       -3.87245913      -3.26665099      -6.45428640
N       -4.23533094      -4.14114889      -4.32563065
C       -3.40006417      -3.33283062      -3.52686788
C       -2.78341919      -2.16554108      -3.98054920
C       -1.98816391      -1.39953914      -3.12054765
C       -1.79610206      -1.79610206      -1.79610206
C       -2.40944115      -2.96220407      -1.33172116
Cl      -2.22540315      -3.53043053       0.29053082
C       -3.21220626      -3.72083077      -2.19390693
N       -7.25877117      -9.45892230      -4.50439767
C       -7.52935904      -9.98788924      -3.22317692
C       -6.56185297     -10.58711553      -2.41419526
C       -6.90111655     -11.10485883      -1.15916344
C       -8.21517424     -11.02637151      -0.69572192
C       -9.19176618     -10.43243660      -1.49971548
Cl     -10.84214704     -10.28691163      -1.00544652
C       -8.84893530      -9.92345255      -2.75950561
H       -6.86554343      -9.35686201      -7.04456164
H       -5.13711829      -9.04424544      -7.01434657
H       -7.32316602      -7.06498357      -6.13529701
H       -6.47177658      -7.04024249      -7.67837899
H       -4.28929866      -6.69626967      -6.43956612
H       -5.18511384      -6.66016149      -4.92647520
H       -6.48348648      -4.66616300      -5.71990504
H       -5.66175904      -4.75141066      -7.27753239
H       -4.69716333      -4.90606559      -3.84836647
H       -2.91372624      -1.81029423      -4.99851208
H       -1.52623817      -0.49139049      -3.50198156
H       -3.68020989      -4.62642499      -1.81481803
H       -8.05981100      -9.14685796      -5.04089757
H       -5.52918546     -10.68735926      -2.73528783
H       -6.12551665     -11.57169811      -0.55554727
H       -9.62372065      -9.46609708      -3.36973454
C       -8.49729979     -11.57310654       0.60623276
C       -8.73357993     -12.03099713       1.69661980
Br      -9.11562494     -12.77136749       3.45968343
O       -5.29353754       4.22836783       9.41103788
C       -5.64546053       5.40131664       9.34411815
C       -6.95293059       5.77335030       8.67128544
C       -6.76448052       6.27675405       7.24275236
C       -6.17260496       5.21450967       6.30812835
C       -6.09360328       5.73433543       4.87434099
C       -5.59092323       4.70629213       3.87142598
O       -6.29399932       4.38104468       2.91835253
N       -4.30805117       4.26337002       4.13068929
C       -3.51284759       3.43030649       3.31660859
C       -3.85095209       3.06656324       2.01199415
C       -2.99727664       2.25657907       1.25439498
C       -1.79610206       1.79610206       1.79610206
C       -1.44781991       2.15502910       3.10051736
Cl       0.01710309       1.62942802       3.85297792
C       -2.30136357       2.97373998       3.85184041
N       -4.93028122       6.49797289       9.79383703
C       -3.72805584       6.47772559      10.53464377
C       -3.17233047       5.31619106      11.07464222
C       -1.98419028       5.36887127      11.81207726
C       -1.33426228       6.58692862      12.01607678
C       -1.88470918       7.75577331      11.48343577
Cl      -1.14645145       9.30657683      11.68147692
C       -3.07943322       7.69916034      10.75329991
H       -7.44899743       6.54502783       9.27294181
H       -7.61095555       4.89632984       8.68842490
H       -6.12097244       7.16457495       7.23789921
H       -7.74315843       6.58986437       6.85737526
H       -6.78365744       4.30397955       6.33749746
H       -5.17453447       4.93553291       6.66168316
H       -5.43981884       6.61345837       4.81627730
H       -7.09008312       6.05464908       4.54596988
H       -3.90265949       4.52859408       5.02034181
H       -4.76832501       3.41066664       1.54354091
H       -3.28561730       1.99565999       0.23833293
H       -2.01404001       3.24133696       4.86607594
H       -5.29043628       7.41194359       9.54518666
H       -3.64731841       4.34647947      10.95803468
H       -1.58031794       4.44699440      12.22544970
H       -3.49143236       8.61999469      10.34812522
C       -0.11308637       6.57205037      12.77903683
C        0.90964845       6.55958984      13.41801588
Br       2.56332415       6.53944221      14.45119095
O        7.21232147      -8.48368655       3.23693523
C        7.85986173      -8.27389453       4.25713906
C        7.24748292      -8.52892784       5.62115558
C        6.73668026      -7.25618827       6.29111840
C        5.60008763      -6.58482689       5.51032847
C        5.06078123      -5.37350554       6.26799295
C        3.87406388      -4.70118684       5.59339062
O        2.80212942      -4.60597881       6.18528830
N        4.16303048      -4.20077802       4.33830198
C        3.32959375      -3.40517546       3.52499346
C        2.12617497      -2.84558168       3.95775283
C        1.36447737      -2.04352947       3.10024386
C        1.79610206      -1.79610206       1.79610206
C        2.99946327      -2.35060566       1.35329745
Cl       3.60978359      -2.10009782      -0.24457855
C        3.76317175      -3.14534619       2.21842602
N        9.14283248      -7.75790430       4.32135436
C       10.00623474      -7.50038991       3.23380055
C        9.73912799      -7.90089853       1.92313724
C       10.64589362      -7.62586225       0.89338295
C       11.83246895      -6.94227678       1.16252195
C       12.11110629      -6.54100177       2.47181020
Cl      13.55239697      -5.68566370       2.89644453
C       11.20414278      -6.82661484       3.50113585
H        8.00137283      -9.00597791       6.25961635
H        6.43552571      -9.25651202       5.50367256
H        7.55915807      -6.54282181       6.42146672
H        6.37832503      -7.51700142       7.29507162
H        4.78856525      -7.30172869       5.33484051
H        5.96790565      -6.27824560       4.52559928
H        5.84641309      -4.61976966       6.40337177
H        4.73818272      -5.68264709       7.26987227
H        5.05369429      -4.46404486       3.93385623
H        1.75605397      -2.99937629       4.96710229
H        0.43430900      -1.61637477       3.46892645
H        4.69642393      -3.56967553       1.85535346
H        9.49221691      -7.51445939       5.24089023
H        8.83810352      -8.44931997       1.66440906
H       10.41172296      -7.95721759      -0.11617852
H       11.44017124      -6.50648706       4.51289396
C       12.72014654      -6.68602458       0.05800245
C       13.46357652      -6.47141337      -0.86703262
Br      14.66563992      -6.12440519      -2.36273610
C       -0.00445707       0.01189536      -1.78238275
H       -0.66409135       0.67374010      -2.43557963
H        0.65740317      -0.63156657      -2.45157240
C       -0.90989263      -0.90692880      -0.91072765
C        0.90977584       0.90977584      -0.90977584
C       -0.00465871       1.77757030       0.00794375
H       -0.66225468       2.44313916      -0.64384735
H        0.64322798       2.43503045       0.67728295
C       -1.78241447       0.00034974      -0.00472694
H       -2.45427497      -0.65498947       0.64260836
H       -2.43311707       0.67328779      -0.65473579
C       -0.91132561       0.90220522       0.91563759
C       -0.01476271      -0.02253852       1.78660255
H       -0.67934791      -0.69751639       2.42135241
H        0.63392994       0.61504881       2.47327442
C        0.01484550      -1.77751727      -0.01636693
H        0.67870853      -2.42144646      -0.68295456
H       -0.62264859      -2.45592969       0.64226336
C        1.78714474       0.01002794       0.00389507
H        2.44202412       0.67113390       0.66197326
H        2.45385902      -0.65136977      -0.64189061
C        0.91606151      -0.90478549       0.90901405
