69
Properties=species:S:1:pos:R:3 pbc="F F F"
C        0.00000000       0.00000000       0.00000000
C        0.88222980       0.88222980      -0.88222980
C        0.57353520       2.23567744      -1.03283226
C        1.37188038       3.06315631      -1.83938044
C        1.00537606       4.51410293      -1.97546862
C        2.47889454       2.50103077      -2.48478051
O        3.25596833       3.30980859      -3.27036615
C        2.78213213       1.14246528      -2.32880581
C        1.98476499       0.32775901      -1.52676187
H       -0.29180457       2.65507278      -0.52259145
H        1.69125654       5.06307281      -2.62545954
H        1.02326141       4.99626823      -0.99200727
H        0.00084283       4.60626511      -2.40047948
H        3.97346803       2.76253398      -3.63809970
H        2.21871509      -0.72591171      -1.40487182
C        3.92072995       0.56175010      -2.99210429
C        4.87430563       0.07540113      -3.54761676
Br       6.41615685      -0.71098402      -4.44583345
C       -0.88222980      -0.88222980      -0.88222980
C       -0.78855242      -2.27180182      -0.78169066
C       -1.59064438      -3.09993968      -1.58383307
C       -1.45919356      -4.59045028      -1.44530377
C       -2.48179141      -2.50147280      -2.48144161
O       -3.26300236      -3.31089755      -3.26224315
C       -2.57005694      -1.10678879      -2.57655748
C       -1.77043028      -0.29172505      -1.77713054
H       -0.08939490      -2.71913438      -0.07733039
H       -2.12708298      -5.13677330      -2.11593261
H       -1.70001140      -4.89156777      -0.41995773
H       -0.43411132      -4.89705386      -1.67642223
H       -3.81692834      -2.73608860      -3.82108477
H       -1.83781672       0.78993609      -1.84979457
C       -3.48627132      -0.48867211      -3.49964090
C       -4.25360087       0.02900060      -4.27272325
Br      -5.49430784       0.86603360      -5.52273204
C       -0.88222980       0.88222980       0.88222980
C       -2.21125318       0.51996628       1.11082545
C       -3.03836480       1.31750599       1.91854633
C       -4.46275630       0.89275918       2.13943213
C       -2.50061337       2.47797906       2.48611339
O       -3.30882602       3.25381329       3.27350376
C       -1.16646359       2.83476681       2.25217282
C       -0.35205778       2.03805869       1.44916940
H       -2.61180604      -0.38670009       0.66075372
H       -5.01451309       1.58475213       2.78052366
H       -4.48740153      -0.09281909       2.61695446
H       -4.98824633       0.83862962       1.18071147
H       -2.78002760       4.01183620       3.58223790
H        0.68270562       2.31347757       1.26690325
C       -0.61093121       4.02859726       2.83505586
C       -0.14567284       5.02843026       3.32322041
Br       0.60661058       6.64507566       4.11254119
C        0.88222980      -0.88222980       0.88222980
C        2.25129649      -0.62164657       0.96910184
C        3.07909499      -1.42097633       1.77434580
C        4.54723414      -1.10743014       1.84028333
C        2.50116935      -2.47932140       2.48421507
O        3.31017024      -3.25708234       3.26889048
C        1.12698531      -2.73444915       2.39196877
C        0.31215053      -1.93668618       1.59044916
H        2.68279153       0.20642247       0.40949061
H        5.09550168      -1.79114723       2.49313997
H        4.69405966      -0.09236813       2.22510911
H        4.98845890      -1.17811467       0.84101385
H        2.75092850      -3.93771965       3.68545356
H       -0.75363010      -2.13333410       1.51797121
C        0.53005238      -3.82309145       3.12144050
C        0.03012105      -4.73482938       3.73237308
Br      -0.77822562      -6.20903250       4.72019939
