82
Properties=species:S:1:pos:R:3 pbc="F F F"
C        1.79213382       1.79213382      -1.79213382
C        1.48343923       3.14558146      -1.94273628
C        2.28178440       3.97306033      -2.74928446
C        1.91528008       5.42400696      -2.88537264
C        3.38879857       3.41093479      -3.39468453
O        4.16587236       4.21971261      -4.18027017
C        3.69203615       2.05236931      -3.23870984
Br       5.19160264       1.28755050      -4.11229324
C        2.89466901       1.23766303      -2.43666590
H        0.61809946       3.56497681      -1.43249548
H        2.60116057       5.97297683      -3.53536356
H        1.93316544       5.90617225      -1.90191129
H        0.91074686       5.51616913      -3.31038350
H        4.88337205       3.67243801      -4.54800372
H        3.12861911       0.18399232      -2.31477584
C       -1.79213382      -1.79213382      -1.79213382
C       -1.48615363      -3.14660862      -1.93899473
C       -2.28454604      -3.97410583      -2.74547732
C       -1.92100889      -5.42617644      -2.87747435
C       -3.38883524      -3.41094795      -3.39463470
O       -4.16596136      -4.21974480      -4.18014898
C       -3.68935899      -2.05135550      -3.24240080
Br      -5.18522818      -1.28513677      -4.12108143
C       -2.89196328      -1.23663877      -2.44039589
H       -0.62291172      -3.56679809      -1.42586193
H       -2.60666142      -5.97506609      -3.52777344
H       -1.94219374      -5.90608163      -1.89297361
H       -0.91573245      -5.52155626      -3.30001078
H       -4.88139620      -3.67168799      -4.55072959
H       -3.12381068      -0.18217227      -2.32140432
C       -1.79213382       1.79213382       1.79213382
C       -3.03957130       1.32318345       2.20900222
C       -3.86527191       2.11884044       3.02001685
C       -5.20050148       1.57740640       3.44675180
C       -3.40940206       3.38648153       3.39853430
O       -4.21602751       4.16030158       4.18952605
C       -2.15682042       3.84993511       2.97635976
Br      -1.53628143       5.56760969       3.48755525
C       -1.34327997       3.05433036       2.17138761
H       -3.37707445       0.33404709       1.90445020
H       -5.75922062       2.27802488       4.07225545
H       -5.06157053       0.65637933       4.02329912
H       -5.81255566       1.35879496       2.56594887
H       -3.74927624       4.99952855       4.35500899
H       -0.37171493       3.41239976       1.84327257
C        1.79213382      -1.79213382       1.79213382
C        3.10436973      -1.40127793       2.06610932
C        3.93119177      -2.19831364       2.87462378
C        5.33723882      -1.74229578       3.14512508
C        3.41028674      -3.38750659       3.39662456
O        4.21817156      -4.16280006       4.18488352
C        2.09292074      -3.77288104       3.11731351
Br       1.38413025      -5.38414773       3.82316840
C        1.27869356      -2.97646906       2.31383532
H        3.49194965      -0.47250972       1.65111237
H        5.89043791      -2.43660781       3.78245523
H        5.32258516      -0.76970382       3.64896000
H        5.88616570      -1.64838621       2.20274758
H        3.70213888      -4.94258484       4.45909007
H        0.25693397      -3.27403839       2.09641492
C       -0.00445707       0.01189536      -1.78238275
H       -0.66409135       0.67374010      -2.43557963
H        0.65740317      -0.63156657      -2.45157240
C       -0.90989263      -0.90692880      -0.91072765
C        0.90977584       0.90977584      -0.90977584
C       -0.00465871       1.77757030       0.00794375
H       -0.66225468       2.44313916      -0.64384735
H        0.64322798       2.43503045       0.67728295
C       -1.78241447       0.00034974      -0.00472694
H       -2.45427497      -0.65498947       0.64260836
H       -2.43311707       0.67328779      -0.65473579
C       -0.91132561       0.90220522       0.91563759
C       -0.01476271      -0.02253852       1.78660255
H       -0.67934791      -0.69751639       2.42135241
H        0.63392994       0.61504881       2.47327442
C        0.01484550      -1.77751727      -0.01636693
H        0.67870853      -2.42144646      -0.68295456
H       -0.62264859      -2.45592969       0.64226336
C        1.78714474       0.01002794       0.00389507
H        2.44202412       0.67113390       0.66197326
H        2.45385902      -0.65136977      -0.64189061
C        0.91606151      -0.90478549       0.90901405
