90
Properties=species:S:1:pos:R:3 pbc="F F F"
C        1.79213382       1.79213382      -1.79213382
C        1.48343923       3.14558146      -1.94273628
C        2.28178440       3.97306033      -2.74928446
C        1.91528008       5.42400696      -2.88537264
C        3.38879857       3.41093479      -3.39468453
O        4.16587236       4.21971261      -4.18027017
C        3.69203615       2.05236931      -3.23870984
C        2.89466901       1.23766303      -2.43666590
H        0.61809946       3.56497681      -1.43249548
H        2.60116057       5.97297683      -3.53536356
H        1.93316544       5.90617225      -1.90191129
H        0.91074686       5.51616913      -3.31038350
H        4.88337205       3.67243801      -4.54800372
H        3.12861911       0.18399232      -2.31477584
C        4.83063397       1.47165412      -3.90200831
C        5.78420965       0.98530515      -4.45752079
Br       7.32606087       0.19892000      -5.35573747
C       -1.79213382      -1.79213382      -1.79213382
C       -1.60945071      -3.17646804      -1.78583823
C       -2.40999059      -4.00450371      -2.58963490
C       -2.18123730      -5.48926129      -2.55416109
C       -3.39049797      -3.41132277      -3.39259715
O       -4.16999818      -4.22066455      -4.17519241
C       -3.56775061      -2.02187611      -3.39348857
C       -2.76905843      -1.20685922      -2.59308029
H       -0.84150189      -3.61974595      -1.15432390
H       -2.85655987      -6.03588360      -3.21705748
H       -2.33802651      -5.86575615      -1.53746632
H       -1.15643064      -5.71578240      -2.86508645
H       -4.79163700      -3.64985978      -4.66231700
H       -2.90539365      -0.12925799      -2.59273563
C       -4.57602144      -1.40919130      -4.21908366
C       -5.42044826      -0.89606777      -4.91051955
Br      -6.78581502      -0.06639043      -6.02851290
C       -1.79213382       1.79213382       1.79213382
C       -3.08602278       1.37490588       2.11082831
C       -3.91252779       2.17147641       2.92012499
C       -5.29852488       1.68661502       3.23951978
C       -3.41003551       3.38715982       3.39722256
O       -4.21756296       4.16195506       4.18633712
C       -2.11101245       3.79890111       3.07320173
C       -1.29698008       3.00276203       2.26925583
H       -3.45942432       0.42575194       1.73039548
H       -5.85329314       2.38306186       3.87314595
H       -5.24506421       0.72843312       3.76775165
H       -5.86893477       1.55358908       2.31477563
H       -3.71548288       4.96181240       4.42651851
H       -0.28943240       3.32076179       2.01719308
C       -1.59181061       5.04959426       3.56289153
C       -1.15697908       6.09704978       3.97300673
Br      -0.45389326       7.79069676       4.63612833
C        1.79213382      -1.79213382       1.79213382
C        3.14254669      -1.47569338       1.95351690
C        3.97002619      -2.27404017       2.76006283
C        5.41778831      -1.89940781       2.90746356
C        3.41081290      -3.38848744       3.39511755
O        4.21944501      -4.16518933       4.18122080
C        2.05527841      -3.69946124       3.22837565
C        1.24064419      -2.90227803       2.42607573
H        3.55962817      -0.60444778       1.45149579
H        5.96769369      -2.58767606       3.55413121
H        5.50048462      -0.89770201       3.34306235
H        5.90545982      -1.90435930       1.92748037
H        3.67438328      -4.88833709       4.54109342
H        0.18931244      -3.14219803       2.29587680
C        1.47763025      -4.84588725       3.88077890
C        0.99384992      -5.80601904       4.42716662
Br       0.21161805      -7.35847093       5.31062936
C       -0.00445707       0.01189536      -1.78238275
H       -0.66409135       0.67374010      -2.43557963
H        0.65740317      -0.63156657      -2.45157240
C       -0.90989263      -0.90692880      -0.91072765
C        0.90977584       0.90977584      -0.90977584
C       -0.00465871       1.77757030       0.00794375
H       -0.66225468       2.44313916      -0.64384735
H        0.64322798       2.43503045       0.67728295
C       -1.78241447       0.00034974      -0.00472694
H       -2.45427497      -0.65498947       0.64260836
H       -2.43311707       0.67328779      -0.65473579
C       -0.91132561       0.90220522       0.91563759
C       -0.01476271      -0.02253852       1.78660255
H       -0.67934791      -0.69751639       2.42135241
H        0.63392994       0.61504881       2.47327442
C        0.01484550      -1.77751727      -0.01636693
H        0.67870853      -2.42144646      -0.68295456
H       -0.62264859      -2.45592969       0.64226336
C        1.78714474       0.01002794       0.00389507
H        2.44202412       0.67113390       0.66197326
H        2.45385902      -0.65136977      -0.64189061
C        0.91606151      -0.90478549       0.90901405
