197
Properties=species:S:1:pos:R:3 pbc="F F F"
C        0.00000000       0.00000000       0.00000000
C        0.88272311       0.88272311      -0.88272311
C        0.65782391       0.92119158      -2.25853516
C        1.45470006       1.73457707      -3.06174563
C        2.42204282       2.55091806      -2.47437534
O        3.20266487       3.34063596      -3.27462027
C        2.59206604       2.57656897      -1.08099309
C        3.54548083       3.55601036      -0.50983082
N        3.55728731       4.28706758       0.56692662
C        2.63728909       4.43732074       1.62351260
C        1.29380988       4.04250675       1.54611318
C        0.45455646       4.03121825       2.66197970
C        0.91481469       4.51948313       3.87030057
C        2.18353793       5.08673305       3.93131025
C        3.06765127       5.08318448       2.82399476
C        4.33565559       5.88481662       2.92911115
C        4.69868995       6.73933335       1.86178876
C        5.77171992       7.63249458       1.94551071
C        6.51094962       7.71486001       3.11573736
C        6.19180901       6.88101794       4.18252635
C        5.13496762       5.95575375       4.10241367
N        4.90924849       5.19828764       5.26812019
C        5.09998558       3.91791388       5.17569845
C        4.91997764       2.98760853       6.31011720
C        4.69224845       1.64601126       5.97310649
C        4.52428744       0.69835783       6.98009039
Br       4.21749022      -1.11007295       6.52162327
C        4.58313791       1.06919505       8.32207455
C        4.81022632       2.40446416       8.66233185
C        4.98036614       3.36205468       7.65967995
O        5.24707290       4.65058858       8.02555037
C        1.87721347       1.67114268      -0.29385371
H       -0.12708719       0.31886906      -2.71175625
H        1.29737183       1.73836932      -4.13595851
H        3.05549199       3.10747357      -4.20677474
H        4.42815702       3.71919857      -1.15510916
H        0.85969375       3.74239654       0.60137187
H       -0.56032377       3.65341970       2.57573176
H        0.27566037       4.52264396       4.74819999
H        2.47698791       5.57148906       4.86180914
H        4.11218282       6.74028778       0.94438065
H        6.00421803       8.27862980       1.10440826
H        7.32310228       8.42982786       3.20574223
H        6.75692553       6.95208644       5.10923562
H        5.39195842       3.46033448       4.21304409
H        4.63544369       1.34652413       4.92970608
H        4.45999539       0.32898417       9.10803470
H        4.86560927       2.67700862       9.71273277
H        5.14343042       4.75615013       8.98309940
H        2.06018293       1.61048261       0.77447892
C       -0.88272311      -0.88272311      -0.88272311
C       -0.37237640      -1.38622979      -2.07894446
C       -1.17280648      -2.20030079      -2.87791549
C       -2.44912719      -2.55714307      -2.44106596
O       -3.22802661      -3.35212377      -3.23777072
C       -2.93211892      -2.12016824      -1.19734094
C       -4.24124102      -2.63601976      -0.73406122
N       -4.71919056      -2.98375923       0.42552152
C       -4.15442984      -3.01275137       1.71608398
C       -2.77404151      -2.97735940       1.96119747
C       -2.24860672      -2.82049816       3.24530985
C       -3.09802531      -2.80142108       4.33544915
C       -4.45771362      -3.01839357       4.13714646
C       -5.02211741      -3.14870154       2.84397795
C       -6.46217492      -3.56936632       2.74018019
C       -6.81335112      -4.60045109       1.83756767
C       -8.09582473      -5.15677262       1.79389358
C       -9.07178893      -4.70998814       2.67170480
C       -8.76736817      -3.68818185       3.56524942
C       -7.49097709      -3.09736781       3.60003721
N       -7.31869778      -2.09496919       4.57425102
C       -7.08640809      -0.89465402       4.13886110
C       -6.89695284       0.26863497       5.03084889
C       -6.20309762       1.35606909       4.48187531
C       -5.99046309       2.49957178       5.24833642
Br      -5.05437435       3.96417055       4.50440979
C       -6.46337914       2.57620376       6.55691697
C       -7.15546593       1.49546224       7.10764505
C       -7.37411392       0.34457316       6.34679988
O       -8.09455323      -0.67612775       6.89856987
C       -2.17605199      -1.20708094      -0.45907693
H        0.63972137      -1.14518612      -2.39807338
H       -0.78329470      -2.56497883      -3.82342613
H       -2.80857147      -3.45220486      -4.10896396
H       -4.96021535      -2.78103800      -1.56121139
H       -2.06592181      -3.08476712       1.14997052
H       -1.17541871      -2.72856209       3.38661662
H       -2.70783484      -2.68433578       5.34206628
H       -5.08833089      -3.11825161       5.01991467
H       -6.06161678      -5.01293769       1.16646451
H       -8.31472276      -5.95631425       1.09259744
H      -10.06033747      -5.15903535       2.67218491
H       -9.52323966      -3.34440492       4.26786823
H       -6.99840072      -0.69611848       3.05527040
H       -5.82180031       1.30429264       3.46524593
H       -6.30460564       3.47104943       7.15261135
H       -7.52888639       1.57396530       8.12503597
H       -8.24907387      -0.50750513       7.84009784
H       -2.57072938      -0.78571127       0.46025404
C       -0.88272311       0.88272311       0.88272311
C       -0.37795661       1.37268316       2.08691088
C       -1.17826730       2.18676483       2.88599063
C       -2.44820961       2.55719996       2.44192665
O       -3.22712377       3.35203897       3.23875835
C       -2.92471892       2.13392503       1.19098414
C       -4.22599382       2.66382943       0.72149875
N       -4.69193165       3.02451451      -0.43901788
C       -4.11670004       3.05920352      -1.72480633
C       -2.73472622       3.01475763      -1.95928041
C       -2.20033779       2.86386717      -3.24040993
C       -3.04117236       2.86016832      -4.33734343
C       -4.40064009       3.08638830      -4.14806766
C       -4.97427697       3.21096594      -2.85840192
C       -6.41174698       3.64225206      -2.76263799
C       -6.76194288       4.66893739      -1.85464573
C       -8.04028835       5.23509182      -1.81667639
C       -9.01273056       4.80304271      -2.70570099
C       -8.70928607       3.78593597      -3.60492143
C       -7.43736603       3.18526943      -3.63432776
N       -7.26525893       2.18925877      -4.61510175
C       -7.04593423       0.98372947      -4.18746269
C       -6.85857821      -0.17394785      -5.08716138
C       -6.17772972      -1.27117624      -4.54140025
C       -5.96803918      -2.41024483      -5.31523946
Br      -5.04950472      -3.88808340      -4.57562731
C       -6.43111006      -2.47276742      -6.62808423
C       -7.11022913      -1.38223143      -7.17563907
C       -7.32582968      -0.23568466      -6.40740414
O       -8.03376554       0.79504852      -6.95670296
C       -2.17003431       1.22070696       0.45146859
H        0.62963173       1.12107355       2.41209631
H       -0.79342842       2.54084800       3.83742324
H       -2.81384206       3.44189054       4.11400770
H       -4.95036418       2.80802914       1.54407143
H       -2.03226269       3.11011036      -1.14165462
H       -1.12681836       2.76450698      -3.37396116
H       -2.64391530       2.74793595      -5.34174692
H       -5.02339884       3.19823633      -5.03496734
H       -6.01234127       5.07010954      -1.17436085
H       -8.25844053       6.03078570      -1.11078666
H       -9.99766535       5.25993775      -2.71041518
H       -9.46223073       3.45375111      -4.31620549
H       -6.96813009       0.77594461      -3.10482590
H       -5.80414324      -1.23047144      -3.52141005
H       -6.27467253      -3.36411486      -7.22961281
H       -7.47614435      -1.44971786      -8.19654137
H       -8.18211084       0.63510562      -7.90073531
H       -2.56069486       0.80977004      -0.47427828
C        0.88272311      -0.88272311       0.88272311
C        0.47549462      -1.17878217       2.18327386
C        1.27419887      -1.99281866       2.98400522
C        2.43590643      -2.55647555       2.45495424
O        3.21526050      -3.34921149       3.25344911
C        2.80261311      -2.32785162       1.11916337
C        3.97532422      -3.05536078       0.58063701
N        4.25920910      -3.58985004      -0.57163086
C        3.53489444      -3.69210094      -1.77589815
C        2.14741209      -3.50891408      -1.86612273
C        1.48365087      -3.43231127      -3.09216712
C        2.18383993      -3.64485937      -4.26470205
C        3.52445962      -4.00962004      -4.19511893
C        4.23077264      -4.06400311      -2.96793476
C        5.61554649      -4.65039521      -2.97458065
C        5.96027377      -5.60930312      -1.99334235
C        7.16678693      -6.31606790      -2.02415105
C        8.06702296      -6.09931971      -3.05627040
C        7.76847696      -5.15449186      -4.03266821
C        6.57298397      -4.41351064      -3.99818692
N        6.39217459      -3.51375936      -5.06651800
C        6.35427775      -2.25221234      -4.76428908
C        6.18518763      -1.18244881      -5.77016747
C        5.69420419       0.03953059      -5.28952037
C        5.51604271       1.10692154      -6.16656629
Br       4.85379239       2.75344559      -5.51455280
C        5.82387639       0.97442862      -7.51918936
C        6.31364903      -0.24092852      -8.00221891
C        6.49618639      -1.31699856      -7.13044407
O        7.02054217      -2.47692411      -7.62535518
C        2.06654060      -1.41504785       0.36062141
H       -0.45392814      -0.77620612       2.58126014
H        0.96974969      -2.19578214       4.00616783
H        2.90169907      -3.29601399       4.17202723
H        4.77287890      -3.19655008       1.33303577
H        1.54092990      -3.43290454      -0.97311602
H        0.41849920      -3.22085202      -3.12198703
H        1.68423475      -3.59336915      -5.22749956
H        4.02205410      -4.28806363      -5.12344989
H        5.25851205      -5.84417423      -1.19459632
H        7.38163984      -7.05267554      -1.25587581
H        8.99038389      -6.66788961      -3.11108559
H        8.46254149      -4.99141196      -4.85417710
H        6.42810984      -1.92303846      -3.71189949
H        5.44223718       0.15187982      -4.23809562
H        5.69249084       1.80920396      -8.20234202
H        6.56077409      -0.32602324      -9.05691221
H        7.07180865      -2.43674507      -8.59207258
H        2.38581699      -1.15392401      -0.64355438
