169
Properties=species:S:1:pos:R:3 pbc="F F F"
C        0.00000000       0.00000000       0.00000000
C        0.88293805       0.88293805      -0.88293805
C        1.38512439       0.38114110      -2.07949399
C        2.18614122       1.19713194      -2.88178083
C        2.50689413       2.50403297      -2.49918937
C        1.96984498       2.99543938      -1.30487638
C        1.16945892       2.18860769      -0.48941463
N        3.24426325       3.35386421      -3.33342802
N        4.07138064       2.85919095      -4.45084032
C        4.89626133       3.92791825      -5.04956695
C        6.06498942       4.46925249      -4.17891997
C        6.68660370       3.43940398      -3.22531731
N        7.11166310       4.92181713      -5.12173192
N        6.82649871       4.20147113      -6.36360469
C        7.70619230       4.12347024      -7.42749011
S        9.13403014       5.09099412      -7.36834047
C        9.63308114       4.45094942      -8.87481041
C        8.71210589       3.52717547      -9.32254577
N        7.59927657       3.38797718      -8.51724351
C        8.84868733       2.74949307     -10.55096796
C        7.70271310       2.21505488     -11.15994699
C        7.79893838       1.45705206     -12.33134305
C        9.04918774       1.21974359     -12.89640565
Br       9.19045427       0.19266046     -14.47819397
C       10.20158335       1.72747976     -12.29965857
C       10.10025286       2.48849766     -11.13018394
C        5.59841658       3.51899459      -6.34726734
O        5.11219914       2.83192614      -7.24379430
H        1.16566408      -0.62691687      -2.41164353
H        2.57554793       0.82757611      -3.82828448
H        2.18671359       4.01844820      -1.01529944
H        0.77709965       2.59452720       0.43587261
H        3.64293993       4.18684018      -2.91194990
H        4.26405961       4.78138862      -5.33970156
H        5.70034163       5.30682102      -3.57099245
H        7.00600198       2.53421312      -3.75466354
H        5.98167282       3.14634004      -2.44096877
H        7.56983172       3.85569753      -2.72609909
H       10.55544640       4.77666747      -9.32498132
H        6.72469935       2.38461888     -10.70524643
H        6.89327695       1.05576242     -12.77641637
H       11.18138143       1.53050239     -12.72366541
H       11.01184334       2.85124490     -10.66361030
C       -0.88293805      -0.88293805      -0.88293805
C       -1.53112283      -1.98346142      -0.33117523
C       -2.33983108      -2.78068912      -1.14453379
C       -2.49909030      -2.50432245      -2.50670372
C       -1.85834827      -1.37821494      -3.03359754
C       -1.04231845      -0.57304309      -2.23211970
N       -3.36835676      -3.25180374      -3.31139498
N       -3.85811219      -4.59112070      -2.93217902
C       -4.59871885      -5.24527978      -4.02974790
C       -3.75923213      -5.69556487      -5.25836487
C       -2.31434427      -6.10123362      -4.93574710
N       -4.45535026      -6.86895976      -5.83090212
N       -5.27420886      -7.38464559      -4.73272008
C       -5.88728073      -8.62390527      -4.74596666
S       -5.84958954      -9.52872835      -6.21504684
C       -6.70069724     -10.80362796      -5.45451579
C       -6.94031470     -10.48796682      -4.13354561
N       -6.51854073      -9.22811300      -3.75784353
C       -7.59991286     -11.37236727      -3.17686823
C       -8.21371852     -10.82382585      -2.04017060
C       -8.84532545     -11.64306696      -1.09894108
C       -8.85696382     -13.02284370      -1.28552947
Br      -9.70500579     -14.13974033      -0.01656258
C       -8.23988265     -13.58999533      -2.39884371
C       -7.61272144     -12.76639338      -3.33981963
C       -5.31568591      -6.53323749      -3.61575511
O       -5.91450250      -6.71606777      -2.55734931
H       -1.43160610      -2.23671635       0.71793171
H       -2.86692766      -3.63662528      -0.72785557
H       -2.00135875      -1.13721924      -4.08188324
H       -0.55014944       0.28659285      -2.67219766
H       -3.26265723      -3.16208630      -4.31698648
H       -5.40559947      -4.58883735      -4.39071296
H       -3.71904421      -4.87421923      -5.98489166
H       -2.27110790      -6.86910798      -4.15466275
H       -1.72390383      -5.24157735      -4.60350045
H       -1.81785900      -6.50954159      -5.82422775
H       -6.95872713     -11.69077497      -6.00759309
H       -8.18675482      -9.74355848      -1.88425135
H       -9.30899351     -11.18744418      -0.22901805
H       -8.22816632     -14.66618498      -2.54119793
H       -7.11205790     -13.22875007      -4.18589058
C       -0.88293805       0.88293805       0.88293805
C       -1.50980531       1.99872384       0.33723033
C       -2.31872052       2.79589400       1.15043948
C       -2.49912199       2.50422427       2.50677020
C       -1.87970127       1.36327281       3.02718666
C       -1.06372108       0.55791317       2.22584699
N       -3.36910900       3.25255109       3.30989538
N       -3.83675496       4.60283432       2.94182264
C       -4.58308820       5.25244514       4.03821319
C       -3.75389213       5.67608302       5.28318672
C       -2.29988133       6.06710105       4.98434262
N       -4.44230986       6.85097848       5.86192380
N       -5.24022330       7.39121739       4.76013383
C       -5.83752545       8.63804018       4.78158703
S       -5.80729578       9.52344827       6.26262068
C       -6.63212061      10.81887710       5.50784327
C       -6.85863029      10.52325472       4.17994212
N       -6.44816484       9.26295074       3.79338168
C       -7.49442896      11.42827659       3.22644281
C       -8.10042729      10.90230185       2.07498583
C       -8.70927222      11.74161531       1.13644596
C       -8.70568865      13.11892945       1.34071888
Br      -9.52288501      14.26284041       0.07558328
C       -8.09587473      13.66376781       2.46907915
C       -7.49152725      12.82015503       3.40725217
C       -5.27811438       6.55476385       3.63180028
O       -5.86079165       6.75884498       2.56828295
H       -1.39348511       2.26405769      -0.70715206
H       -2.82939480       3.66383872       0.73817500
H       -2.03934071       1.11076978       4.07035075
H       -0.58831882      -0.31357759       2.66101301
H       -3.27759324       3.14862690       4.31550987
H       -5.40289914       4.60194444       4.38030620
H       -3.73361544       4.84506681       5.99947285
H       -2.23672462       6.84427205       4.21388195
H       -1.71622478       5.20418919       4.64856766
H       -1.80976268       6.45755714       5.88430853
H       -6.88592938      11.70214880       6.06901701
H       -8.08525693       9.82385707       1.90545065
H       -9.16742412      11.30319015       0.25484148
H       -8.07224797      14.73780812       2.62549314
H       -6.99599110      13.26513886       4.26556858
C        0.88293805      -0.88293805       0.88293805
C        1.68766005      -0.30083370       1.85726573
C        2.48646725      -1.11611137       2.66247537
C        2.50583848      -2.50539572       2.49888227
C        1.66958010      -3.07018638       1.53039427
C        0.86726774      -2.26604969       0.71416381
N        3.24390796      -3.33551683       3.35213069
N        4.34577009      -2.83765652       4.19798529
C        5.08578217      -3.93534066       4.85262371
C        5.95373478      -4.83300550       3.92642160
C        6.53481754      -4.11769484       2.69881262
N        7.07748780      -5.32265449       4.75506985
N        7.16627823      -4.36598120       5.85931510
C        8.23985941      -4.28996748       6.72732577
S        9.44885972      -5.51740206       6.62710295
C       10.33465270      -4.75014798       7.87404030
C        9.68520857      -3.60150417       8.27511438
N        8.47325651      -3.37896193       7.65227882
C       10.18829777      -2.67516285       9.28568773
C        9.28937612      -1.83167642       9.95666244
C        9.73894010      -0.92573219      10.92266120
C       11.09798734      -0.85115298      11.21619667
Br      11.71657947       0.37333976      12.51806900
C       12.00992538      -1.66809817      10.55069814
C       11.55531313      -2.57562901       9.58799231
C        6.08850350      -3.46596026       5.91021476
O        5.90914884      -2.55838701       6.72038373
H        1.70706081       0.77132296       2.01465289
H        3.11095085      -0.68055668       3.43990099
H        1.65364903      -4.14927964       1.41753256
H        0.23815610      -2.73267117      -0.03507303
H        3.40877185      -4.28866516       3.04429300
H        4.39205964      -4.58716689       5.40592326
H        5.34330703      -5.67006160       3.56478647
H        7.09707172      -3.21924854       2.97855837
H        5.74646280      -3.82380982       1.99870902
H        7.22100044      -4.77693949       2.15368842
H       11.26156674      -5.17357579       8.22195265
H        8.22638550      -1.87656976       9.71160940
H        9.01789010      -0.28544249      11.42212316
H       13.07306708      -1.60211319      10.76036896
H       12.28416925      -3.18338276       9.05914652
