177
Properties=species:S:1:pos:R:3 pbc="F F F"
C        0.00000000       0.00000000       0.00000000
C        0.88293805       0.88293805      -0.88293805
C        1.38512439       0.38114110      -2.07949399
C        2.18614122       1.19713194      -2.88178083
C        2.50689413       2.50403297      -2.49918937
C        1.96984498       2.99543938      -1.30487638
C        1.16945892       2.18860769      -0.48941463
N        3.24426325       3.35386421      -3.33342802
N        4.07138064       2.85919095      -4.45084032
C        4.89626133       3.92791825      -5.04956695
C        6.06498942       4.46925249      -4.17891997
C        6.68660370       3.43940398      -3.22531731
N        7.11166310       4.92181713      -5.12173192
N        6.82649871       4.20147113      -6.36360469
C        7.70619230       4.12347024      -7.42749011
S        9.13403014       5.09099412      -7.36834047
C        9.63308114       4.45094942      -8.87481041
C        8.71210589       3.52717547      -9.32254577
N        7.59927657       3.38797718      -8.51724351
C        8.84868733       2.74949307     -10.55096796
C        7.70271310       2.21505488     -11.15994699
C        7.79893838       1.45705206     -12.33134305
C        9.04918774       1.21974359     -12.89640565
C       10.20158335       1.72747976     -12.29965857
C       10.10025286       2.48849766     -11.13018394
C        5.59841658       3.51899459      -6.34726734
O        5.11219914       2.83192614      -7.24379430
H        1.16566408      -0.62691687      -2.41164353
H        2.57554793       0.82757611      -3.82828448
H        2.18671359       4.01844820      -1.01529944
H        0.77709965       2.59452720       0.43587261
H        3.64293993       4.18684018      -2.91194990
H        4.26405961       4.78138862      -5.33970156
H        5.70034163       5.30682102      -3.57099245
H        7.00600198       2.53421312      -3.75466354
H        5.98167282       3.14634004      -2.44096877
H        7.56983172       3.85569753      -2.72609909
H       10.55544640       4.77666747      -9.32498132
H        6.72469935       2.38461888     -10.70524643
H        6.89327695       1.05576242     -12.77641637
H       11.18138143       1.53050239     -12.72366541
H       11.01184334       2.85124490     -10.66361030
C        9.15674699       0.43773042     -14.10076707
C        9.24682786      -0.21720561     -15.10941975
Br       9.39248100      -1.27618177     -16.74032584
C       -0.88293805      -0.88293805      -0.88293805
C       -1.52075122      -1.99094162      -0.33406663
C       -2.32956046      -2.78814071      -1.14735282
C       -2.49910548      -2.50427467      -2.50673632
C       -1.86873825      -1.37089016      -3.03053234
C       -1.05273209      -0.56562696      -2.22912220
N       -3.36872688      -3.25216425      -3.31066435
N       -3.84770977      -4.59687768      -2.93682447
C       -4.59110114      -5.24880964      -4.03383575
C       -3.75655916      -5.68612133      -5.27048139
C       -2.30716463      -6.08470477      -4.95945560
N       -4.44891792      -6.86026967      -5.84602456
N       -5.25761679      -7.38794621      -4.74601153
C       -5.86300425      -8.63092934      -4.76321906
S       -5.82889807      -9.52630020      -6.23816646
C       -6.66722388     -10.81125362      -5.48036348
C       -6.90049826     -10.50536577      -4.15596309
N       -6.48425081      -9.24525699      -3.77498947
C       -7.54852878     -11.39985681      -3.20076276
C       -8.15859052     -10.86229924      -2.05682521
C       -8.77913520     -11.69136098      -1.11683731
C       -8.78332470     -13.06999077      -1.31202151
C       -8.16972427     -13.62628335      -2.43271407
C       -7.55365079     -12.79289048      -3.37239318
C       -5.29738898      -6.54381181      -3.62347772
O       -5.88838448      -6.73701373      -2.56252137
H       -1.41305927      -2.25011629       0.71278482
H       -2.84866791      -3.64996122      -0.73277939
H       -2.01984048      -1.12425286      -4.07636789
H       -0.56872107       0.29981978      -2.66685294
H       -3.26991515      -3.15550218      -4.31631268
H       -5.40432160      -4.59521105      -4.38561713
H       -3.72607337      -4.86001549      -5.99206623
H       -2.25422047      -6.85715776      -4.18350040
H       -1.72002990      -5.22344573      -4.62550601
H       -1.81373418      -6.48432311      -5.85357106
H       -6.92317790     -11.69653228      -6.03738500
H       -8.13739763      -9.78287905      -1.89428798
H       -9.24016206     -11.24410738      -0.24118629
H       -8.15217884     -14.70146753      -2.58190286
H       -7.05543783     -13.24679414      -4.22446657
C       -9.41760293     -13.93045114      -0.34719040
C       -9.94881095     -14.65108671       0.46085565
Br     -10.80772939     -15.81629346       1.76739778
C       -0.88293805       0.88293805       0.88293805
C       -1.59350744       1.93623335       0.31601869
C       -2.40159639       2.73365820       1.12979940
C       -2.49900893       2.50461034       2.50649720
C       -1.79580762       1.42452481       3.04982832
C       -0.97965557       0.61990197       2.24792371
N       -3.36596125       3.24976223       3.31583200
N       -3.92115299       4.55411988       2.90613904
C       -4.64506877       5.22225857       4.00641919
C       -3.77837715       5.75093616       5.18384856
C       -2.36338447       6.19747432       4.79046622
N       -4.49763576       6.91884171       5.73873467
N       -5.37634666       7.36056537       4.65466251
C       -6.03613043       8.57563593       4.64538629
S       -5.97872773       9.53756984       6.07706716
C       -6.90649249      10.74930465       5.30304384
C       -7.18286102      10.37388173       4.00508438
N       -6.72683908       9.11703294       3.66062524
C       -7.91156647      11.19522636       3.04235553
C       -8.54565728      10.58043383       1.95162386
C       -9.24330612      11.33835901       1.00566835
C       -9.30150745      12.72293914       1.14089040
C       -8.66574175      13.35552970       2.20745024
C       -7.97237240      12.59307408       3.15348797
C       -5.42644814       6.46549340       3.57273696
O       -6.07103206       6.58460914       2.53227838
H       -1.54315792       2.15212142      -0.74488860
H       -2.97671408       3.55248796       0.70220647
H       -1.89009421       1.21922140       4.11114561
H       -0.43839693      -0.20301889       2.70037620
H       -3.21936526       3.20315198       4.31921277
H       -5.41181523       4.55063450       4.42270006
H       -3.67922795       4.96048182       5.93844533
H       -2.37919345       6.93553423       3.98015095
H       -1.75284961       5.34822974       4.46790230
H       -1.85027422       6.65822049       5.64313363
H       -7.17791641      11.64698926       5.83218952
H       -8.48263140       9.49669101       1.83524226
H       -9.72111717      10.83231299       0.17202558
H       -8.69049229      14.43611930       2.30893764
H       -7.45877202      13.10630062       3.96162590
C      -10.01536287      13.51047981       0.16940179
C      -10.61321680      14.17004513      -0.64421992
Br     -11.57989602      15.23650646      -1.95977741
C        0.88293805      -0.88293805       0.88293805
C        1.80835810      -0.29673388       1.74066749
C        2.60643286      -1.11141346       2.54720768
C        2.50529313      -2.50593313       2.49889020
C        1.55035671      -3.07185979       1.64794425
C        0.74702534      -2.26880440       0.83165151
N        3.24588182      -3.32661023       3.35906344
N        4.44935384      -2.85872819       4.07332989
C        5.15476968      -3.96066888       4.75830797
C        5.87100789      -4.99601583       3.84613815
C        6.40107133      -4.42804693       2.52220674
N        7.01891062      -5.51242721       4.62387431
N        7.27261565      -4.48445504       5.63450384
C        8.41741702      -4.43164406       6.40809157
S        9.51595847      -5.75956838       6.31783788
C       10.55886032      -4.97521045       7.42477021
C       10.03527297      -3.74905434       7.77749981
N        8.79635498      -3.47486728       7.23327500
C       10.69047533      -2.79292306       8.66574996
C        9.91804686      -1.82843936       9.33122875
C       10.51478885      -0.89154116      10.18100348
C       11.89526037      -0.90807737      10.36199924
C       12.68311705      -1.84685410       9.69875054
C       12.08151166      -2.78465518       8.85276761
C        6.27518603      -3.49655498       5.69293750
O        6.23420723      -2.51763192       6.43608043
H        1.92313320       0.77899485       1.80625239
H        3.32511430      -0.67093437       3.23535985
H        1.44220433      -4.15134782       1.62690908
H        0.02370610      -2.73759849       0.17444965
H        3.31079899      -4.31100576       3.11992526
H        4.46150887      -4.50799874       5.41564218
H        5.17006826      -5.80462879       3.60345805
H        7.05204491      -3.56071984       2.68211388
H        5.58206884      -4.12419488       1.86271792
H        6.98677150      -5.18208607       1.98277077
H       11.47624147      -5.44637557       7.73447815
H        8.83804406      -1.80334072       9.17317988
H        9.88918646      -0.15693982      10.67932946
H       13.76194388      -1.85372852       9.81987683
H       12.71492283      -3.48983834       8.32193738
C       12.51742035       0.05518073      11.23300486
C       13.03847933       0.86190939      11.96247206
Br      13.88098764       2.16632141      13.14195883
