190
Properties=species:S:1:pos:R:3 pbc="F F F"
C        1.79284208       1.79284208      -1.79284208
C        2.29502841       1.29104513      -2.98939801
C        3.09604524       2.10703597      -3.79168485
C        3.41679815       3.41393700      -3.40909339
C        2.87974901       3.90534341      -2.21478041
C        2.07936295       3.09851172      -1.39931865
N        4.15416727       4.26376823      -4.24333205
N        4.98128466       3.76909497      -5.36074435
C        5.80616535       4.83782228      -5.95947097
C        6.97489344       5.37915651      -5.08882399
C        7.59650773       4.34930801      -4.13522134
N        8.02156712       5.83172115      -6.03163594
N        7.73640273       5.11137515      -7.27350871
C        8.61609633       5.03337426      -8.33739413
S       10.04393416       6.00089815      -8.27824450
C       10.54298517       5.36085345      -9.78471444
C        9.62200992       4.43707949     -10.23244979
N        8.50918060       4.29788120      -9.42714753
C        9.75859135       3.65939709     -11.46087198
C        8.61261712       3.12495891     -12.06985102
C        8.70884240       2.36695608     -13.24124707
C        9.95909177       2.12964761     -13.80630968
Br      10.10035830       1.10256448     -15.38809799
C       11.11148737       2.63738379     -13.20956260
C       11.01015688       3.39840168     -12.04008796
C        6.50832060       4.42889862      -7.25717137
O        6.02210316       3.74183016      -8.15369832
H        2.07556810       0.28298716      -3.32154755
H        3.48545196       1.73748013      -4.73818850
H        3.09661762       4.92835222      -1.92520346
H        1.68700367       3.50443122      -0.47403142
H        4.55284395       5.09674420      -3.82185393
H        5.17396363       5.69129264      -6.24960559
H        6.61024566       6.21672504      -4.48089647
H        7.91590600       3.44411714      -4.66456756
H        6.89157685       4.05624407      -3.35087279
H        8.47973575       4.76560156      -3.63600312
H       11.46535042       5.68657149     -10.23488534
H        7.63460337       3.29452291     -11.61515045
H        7.80318098       1.96566644     -13.68632039
H       12.09128546       2.44040641     -13.63356943
H       11.92174736       3.76114893     -11.57351432
C       -1.79284208      -1.79284208      -1.79284208
C       -2.41171211      -2.91424135      -1.24951809
C       -3.22070436      -3.71139118      -2.06267053
C       -3.40903841      -3.41409149      -3.41669864
C       -2.79761355      -2.26768434      -3.93457493
C       -1.98165298      -1.46225422      -3.13328611
N       -4.27928673      -4.16274186      -4.21923896
N       -4.73867049      -5.51701358      -3.85543991
C       -5.48715501      -6.16494743      -4.95135616
C       -4.66194681      -6.57860665      -6.20232049
C       -3.20465348      -6.96404073      -5.91234286
N       -5.34750226      -7.75401699      -6.78340496
N       -6.13749504      -8.30337465      -5.68041691
C       -6.72890583      -9.55294474      -5.70501416
S       -6.70156829     -10.43108219      -7.19042632
C       -7.51652186     -11.73407742      -6.43795378
C       -7.73804380     -11.44592355      -5.10757185
N       -7.33177021     -10.18552455      -4.71691457
C       -8.36489048     -12.35856299      -4.15540696
C       -8.96784777     -11.84104485      -2.99853443
C       -9.56812863     -12.68777571      -2.06114121
C       -9.55892285     -14.06406085      -2.27206535
Br     -10.36451497     -15.21795311      -1.00855269
C       -8.95194825     -14.60053457      -3.40595094
C       -8.35618358     -13.74952792      -4.34293502
C       -6.17395901      -7.47253565      -4.54789592
O       -6.75051761      -7.68452225      -3.48259178
H       -2.28908781      -3.18401824      -0.20699676
H       -3.72521620      -4.58375493      -1.65214946
H       -2.96348866      -2.01095261      -4.97573203
H       -1.51253975      -0.58640467      -3.56652190
H       -4.19311875      -4.05355506      -5.22476827
H       -6.31171634      -5.51677232      -5.28637321
H       -4.64910949      -5.74407592      -6.91468176
H       -3.13405650      -7.74458521      -5.14594899
H       -2.62353132      -6.09994626      -5.57521614
H       -2.71701107      -7.34780829      -6.81652106
H       -7.76879264     -12.61586015      -7.00215446
H       -8.95703384     -10.76336514      -2.82387775
H      -10.02412364     -12.25579804      -1.17524613
H       -8.92392384     -15.67368586      -3.56765161
H       -7.86266147     -14.18799564      -5.20575350
C       -1.79284208       1.79284208       1.79284208
C       -2.37689317       2.93797926       1.26059913
C       -3.18621707       3.73504848       2.07350051
C       -3.40909547       3.41393140       3.41680167
C       -2.83246622       2.24447844       3.92292817
C       -2.01659738       1.43874132       3.12185461
N       -4.28042523       4.16403019       4.21681213
N       -4.70403754       5.53488157       3.87220486
C       -5.46190700       6.17569754       4.96585405
C       -4.65485907       6.54602343       6.24199144
C       -3.18415029       6.90659614       5.99029064
N       -5.32811849       7.72337460       6.83343112
N       -6.08323028       8.31185625       5.72620007
C       -6.64914500       9.57282427       5.76489546
S       -6.63498162      10.41938680       7.26870838
C       -7.40688604      11.75447917       6.52718784
C       -7.60625123      11.49853553       5.18675243
N       -7.21791220      10.23818534       4.77811179
C       -8.19397384      12.44359870       4.24128789
C       -8.78298848      11.96284181       3.06159676
C       -9.34582625      12.84116141       2.13005791
C       -9.31269471      14.21230773       2.37004662
Br     -10.06755942      15.40869877       1.11476259
C       -8.71878998      14.71240124       3.52724254
C       -8.16054597      13.82991120       4.45818935
C       -6.11296839       7.50548968       4.57593252
O       -6.66248591       7.75147783       3.50366792
H       -2.22681953       3.22654745       0.22673583
H       -3.66388798       4.62611392       1.67111869
H       -3.02547429       1.96988815       4.95481086
H       -1.57485964       0.54446840       3.54613827
H       -4.21770844       4.03235050       5.22138314
H       -6.30652216       5.53825248       5.27008722
H       -4.67422220       5.69690100       6.93674397
H       -3.08136466       7.70111350       5.24211254
H       -2.61399628       6.03759507       5.64710237
H       -2.70783905       7.26129624       6.91220513
H       -7.65274597      12.62955895       7.10450234
H       -8.79071722      10.88900239       2.86455712
H       -9.79188236      12.43722918       1.22605627
H       -8.67206040      15.78116384       3.71203706
H       -7.67635957      14.24001651       5.34003453
C        1.79284208      -1.79284208       1.79284208
C        2.55278107      -1.21675640       2.80593408
C        3.35188404      -2.03220551       3.61067652
C        3.41592485      -3.41509934       3.40880435
C        2.62381152      -3.97493852       2.40112279
C        1.82183692      -3.17040161       1.58495478
N        4.15342017      -4.24847006       4.25937731
N        5.21629372      -3.74451724       5.15031302
C        5.96902343      -4.83944759       5.79498758
C        6.88816125      -5.68530699       4.86940570
C        7.48256406      -4.91884579       3.67962722
N        8.00189126      -6.16695269       5.71608026
N        8.03202397      -5.24043368       6.84882895
C        9.07819296      -5.15941840       7.74925337
S       10.32445020      -6.34905236       7.64957424
C       11.15240392      -5.59356068       8.94258845
C       10.45908432      -4.47564050       9.35681437
N        9.25916251      -4.26929918       8.70574764
C       10.90668312      -3.56510394      10.40707336
C        9.96532437      -2.76688160      11.07522108
C       10.36128036      -1.87694056      12.07882464
C       11.70884006      -1.77277104      12.41343796
Br      12.25507201      -0.56949188      13.76645688
C       12.66228503      -2.54426656      11.75188216
C       12.26123829      -3.43602958      10.75137866
C        6.92771907      -4.37284355       6.89382797
O        6.69959015      -3.49441912       7.72362238
H        2.53680759      -0.14946660       2.99382862
H        3.94148355      -1.60192378       4.41771326
H        2.64220310      -5.05034702       2.25762318
H        1.22771902      -3.63266834       0.80507895
H        4.35429457      -5.18733698       3.92981053
H        5.27915488      -5.52617410       6.30953288
H        6.31253069      -6.52837072       4.46696576
H        8.01058536      -4.01342950       4.00057584
H        6.70600476      -4.62710717       2.96558178
H        8.20250877      -5.54257534       3.13625631
H       12.08102829      -6.00068578       9.30509318
H        8.91136466      -2.83448391      10.79842816
H        9.60832472      -1.27181080      12.57503229
H       13.71677948      -2.45456429      11.99391753
H       13.02187895      -4.00758273      10.22694894
C       -0.00445707       0.01189536      -1.78238275
H       -0.66409135       0.67374010      -2.43557963
H        0.65740317      -0.63156657      -2.45157240
C       -0.90989263      -0.90692880      -0.91072765
C        0.90977584       0.90977584      -0.90977584
C       -0.00465871       1.77757030       0.00794375
H       -0.66225468       2.44313916      -0.64384735
H        0.64322798       2.43503045       0.67728295
C       -1.78241447       0.00034974      -0.00472694
H       -2.45427497      -0.65498947       0.64260836
H       -2.43311707       0.67328779      -0.65473579
C       -0.91132561       0.90220522       0.91563759
C       -0.01476271      -0.02253852       1.78660255
H       -0.67934791      -0.69751639       2.42135241
H        0.63392994       0.61504881       2.47327442
C        0.01484550      -1.77751727      -0.01636693
H        0.67870853      -2.42144646      -0.68295456
H       -0.62264859      -2.45592969       0.64226336
C        1.78714474       0.01002794       0.00389507
H        2.44202412       0.67113390       0.66197326
H        2.45385902      -0.65136977      -0.64189061
C        0.91606151      -0.90478549       0.90901405
