165
Properties=species:S:1:pos:R:3 pbc="F F F"
C        0.00000000       0.00000000       0.00000000
C        0.88259612       0.88259612      -0.88259612
C        1.37684383       0.38214253      -2.08368397
C        2.18503982       1.19099507      -2.88418888
C        2.52151720       2.49757824      -2.48948589
C        1.99922950       2.98605220      -1.27987660
C        1.18599709       2.18136725      -0.47712346
C        3.38854326       3.39721182      -3.37280542
H        3.88113945       4.13971129      -2.72854218
O        2.42954866       4.12972481      -4.19211327
C        2.79072387       4.41737429      -5.48312064
C        1.80934341       4.99588340      -6.28779592
C        2.09119998       5.30416636      -7.61940824
C        3.35924791       5.03530808      -8.13587879
C        4.34981445       4.46662053      -7.33535228
C        4.06378217       4.14763109      -6.00330189
C        5.06883774       3.58733029      -5.05334467
H        5.51647222       4.43480736      -4.50783502
C        6.18857932       2.68211508      -5.53965580
C        6.49057631       1.90271431      -4.27811584
N        5.45439194       1.96984722      -3.40542473
N        4.39343850       2.67261380      -4.14670516
C        7.64938082       1.15227386      -3.91601541
C        7.90604560       0.44224566      -2.75178154
C        9.17638421      -0.19879867      -2.74082531
C        9.87060914       0.03430489      -3.90340858
S        8.99161079       1.01726631      -4.99024304
H        1.15745741      -0.62975808      -2.40807505
H        2.59384138       0.80296577      -3.81723745
H        2.23633548       3.99829100      -0.96303312
H        0.80258390       2.57563939       0.45813309
H        0.82508785       5.19190462      -5.87416288
H        1.31828772       5.74566921      -8.24091011
H        5.33760277       4.26526876      -7.73823717
H        5.87134084       2.00173931      -6.33966923
H        7.04690190       3.26648658      -5.88623764
H        7.18346138       0.39373961      -1.94571683
H        9.55058842      -0.79878589      -1.92261228
H       10.85229152      -0.32547391      -4.17316932
C        3.64820858       5.35452433      -9.50999768
C        3.89021315       5.62186793     -10.66082224
Br       4.28151406       6.05413994     -12.52160824
C       -0.88259612      -0.88259612      -0.88259612
C       -0.90586691      -2.25911933      -0.67768409
C       -1.71086179      -3.06081663      -1.48854535
C       -2.48634198      -2.50258839      -2.51965095
C       -2.45767175      -1.10911031      -2.69837624
C       -1.65653324      -0.30185228      -1.88610228
C       -3.38799170      -3.37301087      -3.39755793
H       -3.53259108      -2.85837383      -4.35842802
O       -4.67868016      -3.35432870      -2.71837788
C       -5.43165222      -4.49939470      -2.76017188
C       -6.59593863      -4.50482521      -1.99225890
C       -7.40974239      -5.63829120      -1.96674099
C       -7.05382443      -6.75967682      -2.71693352
C       -5.89679578      -6.75911337      -3.49587811
C       -5.07528504      -5.62652468      -3.51290544
C       -3.84806365      -5.50807384      -4.35337521
H       -4.14035298      -5.02042908      -5.29833254
C       -3.00159624      -6.72678302      -4.68197093
C       -1.65794554      -6.07823445      -4.93522646
N       -1.60477177      -4.83937928      -4.38551283
N       -2.86427143      -4.71630839      -3.63217764
C       -0.51388230      -6.57393493      -5.62985285
C        0.71182690      -5.96187422      -5.85002548
C        1.62962792      -6.76598355      -6.58205522
C        1.08534876      -7.98442049      -6.90925088
S       -0.51608543      -8.14731248      -6.33572223
H       -0.30181172      -2.72679663       0.09283397
H       -1.72196541      -4.14200469      -1.35007450
H       -3.06026769      -0.65612457      -3.48126734
H       -1.64172414       0.77070652      -2.04907258
H       -6.85563086      -3.62783097      -1.40769352
H       -8.30919519      -5.63684966      -1.35882218
H       -5.62643571      -7.63064907      -4.08402392
H       -2.93009290      -7.43526197      -3.84739452
H       -3.38680682      -7.24959553      -5.56322378
H        0.92297348      -4.96530284      -5.48058846
H        2.63286926      -6.46085862      -6.84642545
H        1.54830016      -8.79229644      -7.45599065
C       -7.89507791      -7.92807080      -2.68958188
C       -8.59962770      -8.90660075      -2.66667488
Br      -9.73882511     -10.48880092      -2.62963620
C       -0.88259612       0.88259612       0.88259612
C       -0.35998745       1.43365675       2.04902613
C       -1.17110975       2.23603231       2.85308170
C       -2.51235369       2.48362810       2.51259954
C       -3.01368527       1.92836922       1.32310381
C       -2.20402362       1.12789869       0.51256548
C       -3.40039465       3.38038144       3.37778441
H       -4.44789918       3.09084433       3.21064941
O       -3.24028095       4.71037530       2.80073050
C       -3.25235418       5.77821863       3.66064599
C       -2.96207985       7.02468470       3.10625819
C       -2.93740760       8.16034794       3.91701904
C       -3.20983344       8.04036533       5.28023600
C       -3.51137493       6.79937836       5.84103396
C       -3.52547717       5.65918947       5.03004851
C       -3.88779074       4.29835831       5.52336364
H       -4.96549272       4.15562041       5.33800147
C       -3.58436703       3.87490855       6.95107462
C       -3.50881067       2.37201695       6.79057884
N       -3.30474992       2.03126232       5.49365165
N       -3.09301013       3.31540405       4.80434329
C       -3.61409804       1.33645385       7.76711820
C       -3.54050108      -0.03890042       7.59847213
C       -3.68081673      -0.77222580       8.80981992
C       -3.85973539       0.06094704       9.88764018
S       -3.85751986       1.70826644       9.43333383
H        0.66351312       1.24401646       2.35527105
H       -0.77843831       2.65673787       3.77886843
H       -4.04416755       2.11869292       1.03479913
H       -2.61537248       0.70069518      -0.39597746
H       -2.74446500       7.10112807       2.04556228
H       -2.70131518       9.12501283       3.47853902
H       -3.72988564       6.71050119       6.90072187
H       -2.62770174       4.26616727       7.31888037
H       -4.38314375       4.18342560       7.63305677
H       -3.38354602      -0.48338569       6.62275749
H       -3.64743638      -1.85098797       8.87796641
H       -3.98986248      -0.21365043      10.92377488
C       -3.18427949       9.21343020       6.11502089
C       -3.16287806      10.19587202       6.81415324
Br      -3.12827375      11.78439736       7.94459112
C        0.88259612      -0.88259612       0.88259612
C        1.91800536      -1.61523315       0.30943182
C        2.71876721      -2.42217334       1.11928322
C        2.48650046      -2.51979775       2.50228311
C        1.44461293      -1.75997464       3.06057073
C        0.64294531      -0.94721056       2.25433193
C        3.37444493      -3.38500949       3.39910608
H        2.79140270      -3.67186141       4.28612881
O        4.41460852      -2.47376695       3.86301128
C        5.67544140      -2.98599506       4.02978234
C        6.68080224      -2.07086850       4.34135199
C        7.99498735      -2.50885641       4.51093082
C        8.29313372      -3.86491210       4.37238895
C        7.29212117      -4.78837521       4.07129087
C        5.97642867      -4.34763943       3.89064704
C        4.82840628      -5.26147165       3.61963477
H        4.36397915      -5.50547860       4.58965685
C        5.01977429      -6.55141966       2.83915625
C        3.62575498      -6.75801848       2.28763299
N        2.91747710      -5.60147854       2.31070824
N        3.89010387      -4.58241152       2.74024207
C        3.00443476      -7.93686442       1.77637090
C        1.72224783      -8.10472145       1.27310352
C        1.44685181      -9.43181425       0.83974479
C        2.52975619     -10.25794122       1.02062520
S        3.85953167      -9.43277370       1.70681478
H        2.11079041      -1.58283230      -0.75784833
H        3.51995241      -3.01555912       0.67853308
H        1.25694054      -1.81083611       4.12988294
H       -0.16279508      -0.37753713       2.70534814
H        6.43496655      -1.01803001       4.43815879
H        8.77264807      -1.78812097       4.74409798
H        7.52615284      -5.84374168       3.97121418
H        5.74175067      -6.45184761       2.01915111
H        5.33515764      -7.36799118       3.49647731
H        1.02037833      -7.28072526       1.22181423
H        0.50487804      -9.75293694       0.41659984
H        2.61009895     -11.30793717       0.78195081
C        9.64968437      -4.31488288       4.54816333
C       10.78579554      -4.69173341       4.69537437
Br      12.62279121      -5.30106885       4.93340217
