186
Properties=species:S:1:pos:R:3 pbc="F F F"
C        1.79250014       1.79250014      -1.79250014
C        2.28674786       1.29204656      -2.99358800
C        3.09494384       2.10089909      -3.79409290
C        3.43142122       3.40748227      -3.39938991
C        2.90913353       3.89595622      -2.18978062
C        2.09590111       3.09127127      -1.38702748
C        4.29844728       4.30711585      -4.28270944
H        4.79104348       5.04961532      -3.63844621
O        3.33945269       5.03962884      -5.10201729
C        3.70062790       5.32727831      -6.39302467
C        2.71924744       5.90578742      -7.19769995
C        3.00110400       6.21407038      -8.52931227
C        4.26915193       5.94521210      -9.04578281
C        5.25971847       5.37652455      -8.24525630
C        4.97368620       5.05753512      -6.91320591
C        5.97874176       4.49723431      -5.96324870
H        6.42637625       5.34471139      -5.41773904
C        7.09848334       3.59201911      -6.44955982
C        7.40048033       2.81261833      -5.18801987
N        6.36429596       2.87975124      -4.31532875
N        5.30334253       3.58251783      -5.05660918
C        8.55928484       2.06217788      -4.82591944
C        8.81594963       1.35214968      -3.66168556
C       10.08628824       0.71110535      -3.65072934
C       10.78051317       0.94420891      -4.81331261
S        9.90151482       1.92717034      -5.90014706
H        2.06736143       0.28014595      -3.31797908
H        3.50374541       1.71286980      -4.72714147
H        3.14623951       4.90819502      -1.87293714
H        1.71248792       3.48554341      -0.45177093
H        1.73499188       6.10180865      -6.78406690
H        2.22819174       6.65557323      -9.15081413
H        6.24750679       5.17517278      -8.64814119
H        6.78124487       2.91164334      -7.24957326
H        7.95680592       4.17639060      -6.79614167
H        8.09336540       1.30364364      -2.85562086
H       10.46049245       0.11111814      -2.83251630
H       11.76219554       0.58443012      -5.08307334
C        4.55811260       6.26442835     -10.41990170
C        4.80011717       6.53177196     -11.57072627
Br       5.19141808       6.96404396     -13.43151226
C       -1.79250014      -1.79250014      -1.79250014
C       -1.82312382      -3.16793255      -1.58132604
C       -2.62807618      -3.96965721      -2.39220244
C       -3.39616734      -3.41264704      -3.42947902
C       -3.36018674      -2.02016330      -3.61452035
C       -2.55907132      -1.21285359      -2.80227496
C       -4.29778172      -4.28295973      -4.30753113
H       -4.43553373      -3.77213467      -5.27143659
O       -5.59150078      -4.25514075      -3.63445729
C       -6.34959060      -5.39688946      -3.67445081
C       -7.51743344      -5.39335518      -2.91194619
C       -8.33661142      -6.52290925      -2.88496599
C       -7.98244430      -7.64940934      -3.62829321
C       -6.82183062      -7.65782829      -4.40184042
C       -5.99498923      -6.52914769      -4.42029030
C       -4.76335092      -6.42029311      -5.25558074
H       -5.04898898      -5.93570177      -6.20413593
C       -3.92105018      -7.64442490      -5.57458719
C       -2.57323815      -7.00329113      -5.82458925
N       -2.51684738      -5.76215130      -5.28037728
N       -3.77923604      -5.62974527      -4.53348823
C       -1.42828900      -7.50751098      -6.51158217
C       -0.19873890      -6.90216417      -6.72888181
C        0.71869122      -7.71391241      -7.45290173
C        0.17027013      -8.93132481      -7.77698000
S       -1.43454347      -9.08412855      -7.21016019
H       -1.22482588      -3.63481227      -0.80584831
H       -2.64485118      -5.05012631      -2.24877919
H       -3.95703651      -1.56803914      -4.40229602
H       -2.53851762      -0.14114472      -2.97013994
H       -7.77574692      -4.51245743      -2.33266307
H       -9.23885344      -6.51447391      -2.28125175
H       -6.55280755      -8.53333368      -4.98467954
H       -3.85670962      -8.34933676      -4.73641508
H       -4.30460376      -8.16954234      -6.45519210
H        0.01532890      -5.90487324      -6.36308555
H        1.72455487      -7.41467013      -7.71401163
H        0.63198482      -9.74387108      -8.31781274
C       -8.82924240      -8.81375498      -3.59944527
C       -9.53843580      -9.78889446      -3.57528513
Br     -10.68514156     -11.36561252      -3.53622022
C       -1.79250014       1.79250014       1.79250014
C       -1.28694265       2.29920055       2.98623921
C       -2.09810351       3.10176462       3.79006771
C       -3.42300615       3.39354546       3.42174179
C       -3.90679802       2.88268130       2.20539105
C       -3.09687574       2.08222712       1.39509700
C       -4.31021611       4.29088316       4.28717331
H       -5.36004970       4.03363397       4.08542133
O       -4.10056146       5.63062465       3.74991271
C       -4.10784532       6.67584643       4.63723912
C       -3.77087755       7.92808097       4.12377629
C       -3.73838620       9.04137152       4.96472893
C       -4.04986759       8.89348486       6.31679440
C       -4.39812325       7.64685883       6.83651725
C       -4.42016276       6.52877129       5.99549318
C       -4.83045498       5.16573742       6.44303237
H       -5.90619055       5.05645824       6.22617789
C       -4.57602932       4.69765815       7.86637480
C       -4.53508616       3.19793846       7.66809392
N       -4.30558049       2.88550405       6.36829142
N       -4.04254317       4.18095536       5.71897100
C       -4.69293914       2.14065443       8.61378859
C       -4.65044391       0.76864713       8.41069383
C       -4.84172051       0.00825779       9.59814463
C       -5.02757390       0.81776547      10.69269532
S       -4.97076778       2.47563113      10.28243331
H       -0.27716102       2.07464418       3.31368126
H       -1.71938078       3.48785967       4.73651623
H       -4.92401458       3.10764236       1.89571474
H       -3.49488811       1.68968839       0.46522577
H       -3.52331495       8.02609794       3.07145454
H       -3.46591467      10.01044085       4.55822359
H       -4.64687551       7.53646637       7.88747888
H       -3.61966589       5.05378477       8.26901080
H       -5.38437187       5.00952773       8.53543860
H       -4.47920720       0.34550581       7.42791689
H       -4.83803209      -1.07241026       9.63850506
H       -5.19217543       0.52004498      11.71747860
C       -4.01616610      10.04350753       7.18276903
C       -3.98794110      11.00665152       7.90802278
Br      -3.94230366      12.56397389       9.08069675
C        1.79250014      -1.79250014       1.79250014
C        2.85930012      -2.48546163       1.22762066
C        3.65999528      -3.29262333       2.03731723
C        3.39684792      -3.43007288       3.41137259
C        2.32325963      -2.70972963       3.96188112
C        1.52142758      -1.89685893       3.15591335
C        4.28401445      -4.29551823       4.30873989
H        3.68698250      -4.61827379       5.17384871
O        5.28975935      -3.37116700       4.82017246
C        6.55849610      -3.85673533       5.00569945
C        7.53304611      -2.92556932       5.36411937
C        8.85319569      -3.33572155       5.55556941
C        9.18811325      -4.68032287       5.39171072
C        8.21786230      -5.61997475       5.04366227
C        6.89640568      -5.20683858       4.84118296
C        5.77826695      -6.14116527       4.51979255
H        5.29671058      -6.42029017       5.47182593
C        6.02035317      -7.40637444       3.71333466
C        4.64562355      -7.63288905       3.12260594
N        3.90855572      -6.49473919       3.15608105
N        4.84496367      -5.46340940       3.63409647
C        4.06624660      -8.81338288       2.56775268
C        2.80115564      -8.99967066       2.02895858
C        2.56928519     -10.32188887       1.55694887
C        3.66763669     -11.12581951       1.74457848
S        4.95957814     -10.28599708       2.48325700
H        3.07697194      -2.42197402       0.16654050
H        4.48605970      -3.85536115       1.60233583
H        2.11110569      -2.79159353       5.02467246
H        0.69115003      -1.35818377       3.60046848
H        7.25893005      -1.88170455       5.48023283
H        9.60689434      -2.60239293       5.82529183
H        8.48032312      -6.66657037       4.92392728
H        6.75925601      -7.26908783       2.91411761
H        6.33988738      -8.23111802       4.35833280
H        2.08053009      -8.19186767       1.98023214
H        1.64606380     -10.65510987       1.10295322
H        3.77971874     -12.16732964       1.48265062
C       10.55075009      -5.10157997       5.59011260
C       11.69195845      -5.45438279       5.75627416
Br      13.53719583      -6.02483511       6.02494337
C       -0.00445707       0.01189536      -1.78238275
H       -0.66409135       0.67374010      -2.43557963
H        0.65740317      -0.63156657      -2.45157240
C       -0.90989263      -0.90692880      -0.91072765
C        0.90977584       0.90977584      -0.90977584
C       -0.00465871       1.77757030       0.00794375
H       -0.66225468       2.44313916      -0.64384735
H        0.64322798       2.43503045       0.67728295
C       -1.78241447       0.00034974      -0.00472694
H       -2.45427497      -0.65498947       0.64260836
H       -2.43311707       0.67328779      -0.65473579
C       -0.91132561       0.90220522       0.91563759
C       -0.01476271      -0.02253852       1.78660255
H       -0.67934791      -0.69751639       2.42135241
H        0.63392994       0.61504881       2.47327442
C        0.01484550      -1.77751727      -0.01636693
H        0.67870853      -2.42144646      -0.68295456
H       -0.62264859      -2.45592969       0.64226336
C        1.78714474       0.01002794       0.00389507
H        2.44202412       0.67113390       0.66197326
H        2.45385902      -0.65136977      -0.64189061
C        0.91606151      -0.90478549       0.90901405
