154
Properties=species:S:1:pos:R:3 pbc="F F F"
O        6.16055556       4.04812439       1.34123604
C        6.88568616       4.38813854       0.40497786
N        6.65091155       3.99872257      -0.89676940
N        5.44178374       3.34801204      -1.17571211
C        4.79038483       3.59335196      -2.36949075
O        5.29611838       4.27388327      -3.26130372
C        3.48131768       2.98184986      -2.46637632
C        2.54779305       2.99125639      -3.48402758
C        1.45013107       2.21310088      -3.04080834
C        1.77722455       1.77722455      -1.77722455
O        3.00436221       2.23907039      -1.41665119
C        8.14511187       5.22157707       0.61427445
O        8.64990460       5.74445101      -0.60879008
C        9.87621581       6.35695976      -0.55034104
C       10.42058426       6.90732317       0.61447500
C       11.67464280       7.52846152       0.58948068
C       12.40064910       7.62596706      -0.60157165
C       13.76015871       8.26033388      -0.60895100
C       11.85984100       7.07680429      -1.76901980
C       10.60385929       6.45866192      -1.74442548
Br       9.93441137       5.74079510      -3.37270083
H        7.11108534       4.48392117      -1.67077942
H        4.94780238       2.92118450      -0.39132545
H        2.65909901       3.49924895      -4.43319389
H        0.53683253       1.99672647      -3.57874033
H        8.88789614       4.56386322       1.08502920
H        7.86782968       6.04251480       1.28547473
H        9.89290089       6.88361244       1.56228872
H       12.07944983       7.94364098       1.51166833
H       14.02245209       8.62114340      -1.60875379
H       14.51366247       7.53366503      -0.28909465
H       13.78851747       9.12259715       0.06573814
H       12.41879128       7.13239417      -2.70079788
O        0.18447671      -1.77496004      -7.27696058
C       -0.41761770      -2.77164423      -7.67958492
N       -1.08398719      -3.63081820      -6.83159813
N       -1.22803999      -3.24518177      -5.49228614
C       -2.39316974      -3.54682003      -4.81323777
O       -3.27028189      -4.25624015      -5.30478334
C       -2.47791759      -2.95916994      -3.49245633
C       -3.46166369      -3.03520400      -2.52620933
C       -3.00926942      -2.27507846      -1.41969241
C       -1.77722455      -1.77722455      -1.77722455
O       -1.44559073      -2.18220090      -3.03229217
C       -0.42637589      -3.17658016      -9.14945844
O       -1.41373320      -4.16264577      -9.42676673
C       -1.38240882      -4.72185143     -10.67925636
C       -0.81173385      -4.10465970     -11.79703887
C       -0.83165447      -4.73576848     -13.04620069
C       -1.43576163      -5.98668838     -13.20573780
C       -1.41798761      -6.67048443     -14.54097155
C       -2.00778828      -6.60759695     -12.09027987
C       -1.99080292      -5.97450207     -10.84164169
Br      -2.79297008      -6.88003230      -9.37490492
H       -1.76662689      -4.29556993      -7.20358911
H       -0.58947121      -2.53180543      -5.13903569
H       -4.39069376      -3.58276658      -2.61808152
H       -3.51899729      -2.11412837      -0.47917367
H        0.57556063      -3.56269924      -9.37959156
H       -0.63623653      -2.26613246      -9.72250076
H       -0.35087507      -3.12402684     -11.73932269
H       -0.37463159      -4.23684597     -13.89994492
H       -2.23001114      -7.40030169     -14.62203646
H       -0.46450092      -7.18897164     -14.68294958
H       -1.55176286      -5.94402275     -15.34959087
H       -2.46935737      -7.58720124     -12.19542473
O       -4.63556618       5.70033573      -1.46845799
C       -5.49445685       6.01896260      -0.64457262
N       -5.69204049       5.32431458       0.53004845
N       -4.75692998       4.33799440       0.87058351
C       -4.40355853       4.15564426       2.19402475
O       -4.97427274       4.74741188       3.10962075
C       -3.31865758       3.21745223       2.39343405
C       -2.70136839       2.77490016       3.54680847
C       -1.70911301       1.84497056       3.14995672
C       -1.77722455       1.77722455       1.77722455
O       -2.74662841       2.60672576       1.30672963
C       -6.45785144       7.17657677      -0.88201372
O       -7.14629094       7.55166039       0.30519437
C       -8.16292994       8.46136362       0.15922305
C       -8.26027970       9.36063679      -0.90748406
C       -9.32309925      10.26866879      -0.97814440
C      -10.29882550      10.30665016       0.02271215
C      -11.45384216      11.25826679      -0.08266536
C      -10.20527615       9.40890059       1.09148835
C       -9.14013421       8.50311200       1.16370048
Br      -9.07987786       7.31847196       2.64955748
H       -6.22895634       5.74397149       1.29285810
H       -4.17348243       3.96671393       0.12011597
H       -2.95014968       3.08928015       4.55211202
H       -1.03192110       1.29269052       3.78768770
H       -7.17029005       6.84594176      -1.64950165
H       -5.85342039       8.01597201      -1.24452265
H       -7.52003700       9.39430644      -1.70011885
H       -9.37967680      10.95441551      -1.82266983
H      -11.88836412      11.46281159       0.90117357
H      -12.22984245      10.83453364      -0.72795395
H      -11.12843329      12.21708417      -0.50014099
H      -10.96432309       9.41674113       1.87091911
O        0.40814241      -1.05221476       7.40708674
C        0.95226266      -2.06378732       7.85279686
N        1.44269649      -3.06379152       7.03991551
N        1.48214415      -2.82322982       5.66013392
C        2.53654413      -3.30726359       4.90941982
O        3.38929543      -4.05469022       5.38731972
C        2.53824720      -2.85876691       3.53252975
C        3.40440817      -3.12760914       2.49105971
C        2.91287558      -2.43219298       1.35897174
C        1.77722455      -1.77722455       1.77722455
O        1.54145697      -2.02533343       3.09329339
C        1.07589284      -2.32706991       9.34945174
O        1.98940069      -3.38007720       9.63366781
C        2.03615791      -3.81241426      10.93494444
C        1.64576705      -3.03653072      12.03113466
C        1.73613677      -3.54571001      13.33177687
C        2.23296144      -4.83211970      13.56310667
C        2.29001088      -5.38142367      14.95800904
C        2.62458240      -5.61160492      12.46947778
C        2.53736058      -5.10071567      11.16887043
Br       3.09341582      -6.21908649       9.73540499
H        2.09465966      -3.75800225       7.41312401
H        0.88035047      -2.08370147       5.29626039
H        4.28218208      -3.75786523       2.55149455
H        3.33473800      -2.41459427       0.36296706
H        0.07147294      -2.58328784       9.71196938
H        1.42918858      -1.39350022       9.80218095
H        1.27590034      -2.02305300      11.91527126
H        1.41961590      -2.92365080      14.16815577
H        3.03363361      -6.18095606      15.03775961
H        1.31189955      -5.78205374      15.24246885
H        2.57517527      -4.59988343      15.67031777
H        3.00019033      -6.61966766      12.63212535
C       -0.00445707       0.01189536      -1.78238275
H       -0.66409135       0.67374010      -2.43557963
H        0.65740317      -0.63156657      -2.45157240
C       -0.90989263      -0.90692880      -0.91072765
C        0.90977584       0.90977584      -0.90977584
C       -0.00465871       1.77757030       0.00794375
H       -0.66225468       2.44313916      -0.64384735
H        0.64322798       2.43503045       0.67728295
C       -1.78241447       0.00034974      -0.00472694
H       -2.45427497      -0.65498947       0.64260836
H       -2.43311707       0.67328779      -0.65473579
C       -0.91132561       0.90220522       0.91563759
C       -0.01476271      -0.02253852       1.78660255
H       -0.67934791      -0.69751639       2.42135241
H        0.63392994       0.61504881       2.47327442
C        0.01484550      -1.77751727      -0.01636693
H        0.67870853      -2.42144646      -0.68295456
H       -0.62264859      -2.45592969       0.64226336
C        1.78714474       0.01002794       0.00389507
H        2.44202412       0.67113390       0.66197326
H        2.45385902      -0.65136977      -0.64189061
C        0.91606151      -0.90478549       0.90901405
