162
Properties=species:S:1:pos:R:3 pbc="F F F"
O        6.16055556       4.04812439       1.34123604
C        6.88568616       4.38813854       0.40497786
N        6.65091155       3.99872257      -0.89676940
N        5.44178374       3.34801204      -1.17571211
C        4.79038483       3.59335196      -2.36949075
O        5.29611838       4.27388327      -3.26130372
C        3.48131768       2.98184986      -2.46637632
C        2.54779305       2.99125639      -3.48402758
C        1.45013107       2.21310088      -3.04080834
C        1.77722455       1.77722455      -1.77722455
O        3.00436221       2.23907039      -1.41665119
C        8.14511187       5.22157707       0.61427445
O        8.64990460       5.74445101      -0.60879008
C        9.87621581       6.35695976      -0.55034104
C       10.42058426       6.90732317       0.61447500
C       11.67464280       7.52846152       0.58948068
C       12.40064910       7.62596706      -0.60157165
C       13.76015871       8.26033388      -0.60895100
C       11.85984100       7.07680429      -1.76901980
C       10.60385929       6.45866192      -1.74442548
H        7.11108534       4.48392117      -1.67077942
H        4.94780238       2.92118450      -0.39132545
H        2.65909901       3.49924895      -4.43319389
H        0.53683253       1.99672647      -3.57874033
H        8.88789614       4.56386322       1.08502920
H        7.86782968       6.04251480       1.28547473
H        9.89290089       6.88361244       1.56228872
H       12.07944983       7.94364098       1.51166833
H       14.02245209       8.62114340      -1.60875379
H       14.51366247       7.53366503      -0.28909465
H       13.78851747       9.12259715       0.06573814
H       12.41879128       7.13239417      -2.70079788
C       10.09682338       5.91495382      -2.97767164
C        9.67218081       5.45959828      -4.01051530
Br       8.98556969       4.72332690      -5.68053614
O       -7.15598556       0.46070462      -2.17216297
C       -7.53896280      -0.17289363      -3.15699041
N       -6.68530090      -0.92718931      -3.93391331
N       -5.37721347      -1.11859493      -3.46969949
C       -4.74747699      -2.33153559      -3.67421496
O       -5.24867500      -3.21933654      -4.36329384
C       -3.46500998      -2.45195095      -3.01258292
C       -2.55063169      -3.48653857      -2.98590675
C       -1.46167995      -3.05102417      -2.19133617
C       -1.77722455      -1.77722455      -1.77722455
O       -2.99018876      -1.40411373      -2.26578131
C       -8.98450803      -0.12823351      -3.63967295
O       -9.26384932      -1.15186958      -4.58742680
C      -10.48255261      -1.08669075      -5.21427325
C      -11.59803927      -0.42707101      -4.68832215
C      -12.81250841      -0.41704558      -5.38406966
C      -12.94016568      -1.07881396      -6.60920817
C      -14.23573711      -1.02963525      -7.36407122
C      -11.82687982      -1.73986321      -7.13892206
C      -10.61319294      -1.75268179      -6.44107195
H       -7.05906810      -1.62476632      -4.58195151
H       -5.02700219      -0.46138355      -2.77192659
H       -2.66435074      -4.43783943      -3.48935168
H       -0.55951146      -3.59880152      -1.95398635
H       -9.14017162       0.86187289      -4.08843143
H       -9.61389458      -0.25904877      -2.75192640
H      -11.56581439       0.08247306      -3.73088327
H      -13.66476665       0.10933840      -4.95599422
H      -14.32303508      -1.87464167      -8.05467254
H      -14.29932811      -0.09950007      -7.93759396
H      -15.08652390      -1.08244451      -6.67640806
H      -11.90649299      -2.24763217      -8.09785817
C       -9.50304774      -2.45243319      -7.03396791
C       -8.57330114      -3.03847499      -7.53051827
Br      -7.06997951      -3.98605501      -8.33339820
O        0.91767914       2.96613758       6.81898547
C        0.22179503       3.92019336       7.17044851
N       -0.69139293       4.52336196       6.33164863
N       -0.95794808       3.90429575       5.10326406
C       -2.24135815       3.92066993       4.59119947
O       -3.14533064       4.57013944       5.11583529
C       -2.41388026       3.11595238       3.39971122
C       -3.52357714       2.89022604       2.60927384
C       -3.11289506       2.02895355       1.56219169
C       -1.77722455       1.77722455       1.77722455
O       -1.34277455       2.42779015       2.88951910
C        0.35454332       4.55808732       8.54887049
O       -0.73332249       5.42632982       8.84349338
C       -0.61790112       6.18437582       9.98123967
C        0.20000825       5.84855737      11.06488330
C        0.25301445       6.66895005      12.19768805
C       -0.52151479       7.83047433      12.27619869
C       -0.42825888       8.72191646      13.47926825
C       -1.34103041       8.17011403      11.19452065
C       -1.39649711       7.34745372      10.06299585
H       -1.41513017       5.13698365       6.71367211
H       -0.26648931       3.24008157       4.75374144
H       -4.50804480       3.30804043       2.77545663
H       -3.71702597       1.64347230       0.75180106
H        1.30086306       5.11521626       8.55237695
H        0.38215057       3.73495039       9.27206993
H        0.80432656       4.94737891      11.07117225
H        0.90292870       6.38860019      13.02575098
H       -1.33032678       9.33239225      13.58963025
H        0.43630434       9.38671508      13.38601139
H       -0.32352263       8.12822067      14.39363318
H       -1.93914324       9.07806022      11.23477988
C       -2.26081655       7.74617827       8.98245402
C       -2.98468407       8.08011008       8.07750023
Br      -4.15511664       8.62004958       6.61426650
O       -1.24539652      -3.74247829       6.37036214
C       -0.48947033      -4.65759726       6.70071991
N        0.55797688      -5.07918092       5.90924573
N        0.87360480      -4.31147595       4.78042715
C        2.19450897      -4.15139417       4.40732441
O        3.10779359      -4.76344929       4.96006249
C        2.39396714      -3.21277320       3.32280352
C        3.54392037      -2.80024963       2.67890702
C        3.14637044      -1.87644807       1.68122178
C        1.77722455      -1.77722455       1.77722455
O        1.30978965      -2.57986731       2.77042684
C       -0.68496155      -5.44700846       7.99036758
O        0.45533555      -6.23383973       8.31397042
C        0.31259850      -7.11515510       9.35576301
C       -0.63567885      -6.97494532      10.37416596
C       -0.70958948      -7.91150588      11.41170724
C        0.17206910      -8.99571284      11.46040587
C        0.05911327     -10.01384591      12.55648441
C        1.12215200      -9.13975929      10.44375380
C        1.19813709      -8.20085460       9.40795499
H        1.30266553      -5.65788961       6.30523078
H        0.15243541      -3.68303940       4.42483752
H        4.54661429      -3.13753489       2.90739267
H        3.78094610      -1.35186302       0.97949021
H       -1.56326532      -6.08902738       7.84096810
H       -0.86799534      -4.71111266       8.78175244
H       -1.32948365      -6.14116337      10.40254488
H       -1.46137383      -7.78324453      12.18955177
H        1.00587751     -10.54380305      12.70266872
H       -0.71769038     -10.74444811      12.30966441
H       -0.19429033      -9.53256868      13.50709813
H        1.80609230      -9.98573968      10.46015135
C        2.19869074      -8.39923657       8.39152153
C        3.03665443      -8.56538146       7.54025850
Br       4.39157083      -8.83402371       6.16383819
C       -0.00445707       0.01189536      -1.78238275
H       -0.66409135       0.67374010      -2.43557963
H        0.65740317      -0.63156657      -2.45157240
C       -0.90989263      -0.90692880      -0.91072765
C        0.90977584       0.90977584      -0.90977584
C       -0.00465871       1.77757030       0.00794375
H       -0.66225468       2.44313916      -0.64384735
H        0.64322798       2.43503045       0.67728295
C       -1.78241447       0.00034974      -0.00472694
H       -2.45427497      -0.65498947       0.64260836
H       -2.43311707       0.67328779      -0.65473579
C       -0.91132561       0.90220522       0.91563759
C       -0.01476271      -0.02253852       1.78660255
H       -0.67934791      -0.69751639       2.42135241
H        0.63392994       0.61504881       2.47327442
C        0.01484550      -1.77751727      -0.01636693
H        0.67870853      -2.42144646      -0.68295456
H       -0.62264859      -2.45592969       0.64226336
C        1.78714474       0.01002794       0.00389507
H        2.44202412       0.67113390       0.66197326
H        2.45385902      -0.65136977      -0.64189061
C        0.91606151      -0.90478549       0.90901405
