141
Properties=species:S:1:pos:R:3 pbc="F F F"
C        0.00000000       0.00000000       0.00000000
O        5.25065154       3.13822037       2.25114007
C        5.97578214       3.47823451       1.31488188
N        5.74100753       3.08881855       0.01313463
N        4.53187972       2.43810802      -0.26580808
C        3.88048081       2.68344794      -1.45958672
O        4.38621436       3.36397925      -2.35139970
C        2.57141365       2.07194584      -1.55647229
C        1.63788902       2.08135237      -2.57412356
C        0.54022705       1.30319686      -2.13090432
C        0.86732052       0.86732052      -0.86732052
O        2.09445819       1.32916637      -0.50674717
C        7.23520785       4.31167305       1.52417848
O        7.74000057       4.83454699       0.30111394
C        8.96631179       5.44705574       0.35956299
C        9.51068023       5.99741915       1.52437903
C       10.76473877       6.61855750       1.49938470
C       11.49074507       6.71606303       0.30833237
C       12.85025469       7.35042985       0.30095303
C       10.94993697       6.16690027      -0.85911578
C        9.69395526       5.54875790      -0.83452145
H        6.20118131       3.57401714      -0.76087540
H        4.03789835       2.01128047       0.51857857
H        1.74919499       2.58934493      -3.52328987
H       -0.37307149       1.08682244      -2.66883630
H        7.97799212       3.65395920       1.99493323
H        6.95792565       5.13261078       2.19537875
H        8.98299686       5.97370841       2.47219275
H       11.16954580       7.03373696       2.42157236
H       13.11254806       7.71123938      -0.69884977
H       13.60375844       6.62376100       0.62080938
H       12.87861344       8.21269313       0.97564217
H       11.50888726       6.22249015      -1.79089386
C        9.18691936       5.00504980      -2.06776761
C        8.76227679       4.54969426      -3.10061127
Br       8.07566567       3.81342287      -4.77063211
O       -6.30584634      -1.07946563       1.24758013
C       -6.87040853      -1.50890739       0.24018115
N       -6.24661631      -1.58276358      -0.98731156
N       -4.86921175      -1.33055933      -1.03602475
C       -4.06929837      -2.05556845      -1.89864865
O       -4.54017937      -2.83737323      -2.72404070
C       -2.65127432      -1.80854366      -1.74001381
C       -1.55913699      -2.32555147      -2.40867649
C       -0.40922817      -1.71742083      -1.84767922
C       -0.86732052      -0.86732052      -0.86732052
O       -2.22411040      -0.91598005      -0.79028127
C       -8.33277026      -1.94015591       0.25022375
O       -8.68231372      -2.67319329      -0.91792662
C      -10.01514679      -2.95096869      -1.08768906
C      -10.94337377      -2.99775969      -0.04258689
C      -12.28587528      -3.30191447      -0.29612182
C      -12.72290168      -3.58083369      -1.59474037
C      -14.17121769      -3.86852061      -1.85999321
C      -11.79774790      -3.53513721      -2.64306791
C      -10.45425196      -3.23431391      -2.38866875
H       -6.64399776      -2.15857653      -1.73349956
H       -4.45992009      -0.81348639      -0.25719377
H       -1.59991270      -3.05209684      -3.20982024
H        0.62333793      -1.87889795      -2.12702725
H       -8.93456806      -1.02439296       0.32194293
H       -8.46684248      -2.56735037       1.13903517
H      -10.65797081      -2.81467728       0.98813556
H      -12.99038971      -3.32572009       0.53439940
H      -14.29763951      -4.43945987      -2.78553783
H      -14.72894304      -2.93071137      -1.94705566
H      -14.60222897      -4.46475963      -1.04867581
H      -12.12517265      -3.73613053      -3.66096808
C       -9.54737482      -3.20550542      -3.50685653
C       -8.78786521      -3.18137831      -4.44333880
Br      -7.55980242      -3.14236681      -5.95755142
O        1.73658403       1.87958036       5.99473551
C        1.05448092       2.84127558       6.35234011
N        0.17475398       3.48415077       5.50729466
N       -0.07726835       2.89928938       4.25923809
C       -1.34781442       2.95685080       3.71885025
O       -2.24877141       3.61501521       4.23780668
C       -1.51089521       2.18343058       2.50550600
C       -2.60685480       2.00128947       1.68522068
C       -2.19164683       1.15461644       0.62806496
C       -0.86732052       0.86732052       0.86732052
O       -0.44409906       1.48240801       2.00386465
C        1.16972633       3.44465834       7.74777041
O        0.09522163       4.33092002       8.03773523
C        0.20141908       5.06022468       9.19499893
C        0.98629745       4.68123401      10.28878379
C        1.03163364       5.47440573      11.44113948
C        0.28191256       6.65143833      11.52894996
C        0.36745854       7.51310699      12.75408307
C       -0.50453035       7.03424099      10.43718168
C       -0.55240651       6.23883076       9.28599735
H       -0.54357755       4.10554286       5.88695345
H        0.60690905       2.22734299       3.91016631
H       -3.58521602       2.43786925       1.83874452
H       -2.78544923       0.80157909      -0.20444106
H        2.12804678       3.97956426       7.78550061
H        1.16203897       2.60498950       8.45220716
H        1.56981446       3.76642807      10.28789891
H        1.65575862       5.16050305      12.27696597
H       -0.52290818       8.14160480      12.85812424
H        1.24872992       8.15969852      12.69574147
H        0.43762420       6.89666360      13.65662500
H       -1.08276730       7.95461716      10.48488680
C       -1.38232249       6.68169646       8.19571782
C       -2.07737712       7.05259648       7.28260872
Br      -3.20122167       7.65231046       5.80618853
O       -2.14215377      -2.79489175       5.48499386
C       -1.38912200      -3.71210572       5.81615105
N       -0.34770249      -4.14277416       5.02161979
N       -0.03389088      -3.38221961       3.88746708
C        1.28592127      -3.23052880       3.50706540
O        2.19890453      -3.84436949       4.05831928
C        1.48462849      -2.29826818       2.41693512
C        2.63339674      -1.89462999       1.76533821
C        2.23546776      -0.97380113       0.76505933
C        0.86732052      -0.86732052       0.86732052
O        0.40086116      -1.66272844       1.86678212
C       -1.58210977      -4.49416820       7.11064399
O       -0.44411726      -5.28503601       7.43251487
C       -0.58603389      -6.16048430       8.47935412
C       -1.52854893      -6.01055519       9.50171410
C       -1.60193436      -6.94160942      10.54423651
C       -0.72540323      -8.02991955      10.59395941
C       -0.83794507      -9.04206206      11.69561452
C        0.21890709      -8.18368555       9.57336038
C        0.29438712      -7.25028894       8.53255855
H        0.39607645      -4.72320669       5.41679071
H       -0.75370566      -2.75197777       3.53232814
H        3.63553515      -2.23574988       1.99054476
H        2.86913706      -0.45583504       0.05761516
H       -2.46429896      -5.13255504       6.96876202
H       -1.75758726      -3.75348013       7.89926482
H       -2.21808393      -5.17321488       9.52938158
H       -2.34921244      -6.80578876      11.32513408
H        0.10690685      -9.57597782      11.83975254
H       -1.61955637      -9.77001356      11.45625288
H       -1.08425722      -8.55485224      12.64506938
H        0.89873960      -9.03295427       9.59057738
C        1.28890005      -7.45863820       7.51219851
C        2.12180463      -7.63313071       6.65764697
Br       3.46854089      -7.91527035       5.27590942
