101
Properties=species:S:1:pos:R:3 pbc="F F F"
C        0.00000000       0.00000000       0.00000000
C        0.88145785       0.88145785      -0.88145785
C        0.35237459       2.03544533      -1.45456844
C        1.16145397       2.84082579      -2.26090890
C        2.50020822       2.49305577      -2.49652711
C        3.02155686       1.33081757      -1.91445473
C        2.21067836       0.52661650      -1.10612976
C        3.31104833       3.37580410      -3.37675592
O        2.84106764       4.38931422      -3.88003108
C        4.73767181       3.00526983      -3.71098768
O        5.55625716       2.95561052      -2.79994132
C        5.10741625       2.67569711      -5.11315473
C        4.17072656       2.68073056      -6.15515558
C        4.56574349       2.34967495      -7.45568953
C        5.89332527       2.01294317      -7.71526927
Br       6.42135456       1.56719419      -9.47400878
C        6.83316581       2.00409224      -6.68695796
C        6.44030429       2.33482787      -5.38734318
H       -0.68267307       2.31902203      -1.28074870
H        0.74005055       3.74257822      -2.70282867
H        4.05700409       1.03247658      -2.06061148
H        2.62761515      -0.37032877      -0.65381989
H        3.13021882       2.94942625      -5.98797182
H        3.83156866       2.36303584      -8.25799383
H        7.87068998       1.74527634      -6.88417377
H        7.18228248       2.32815609      -4.59017255
C       -0.88145785      -0.88145785      -0.88145785
C       -0.86846793      -0.71022443      -2.26369601
C       -1.67613428      -1.51860284      -3.06845153
C       -2.49889806      -2.49841670      -2.49247633
C       -2.50321211      -2.66204587      -1.10157117
C       -1.69277911      -1.85307838      -0.29756713
C       -3.35142316      -3.31852467      -3.39366053
O       -3.33788778      -3.16348415      -4.60904102
C       -4.30139128      -4.34022037      -2.81231767
O       -3.83135198      -5.28771388      -2.19274313
C       -5.76909673      -4.15883529      -2.96833606
C       -6.32050597      -3.05460123      -3.63150549
C       -7.70895846      -2.92233658      -3.73981292
C       -8.54549049      -3.89014083      -3.18590640
Br     -10.42019984      -3.70660909      -3.33574860
C       -8.00839385      -4.99196620      -2.52385596
C       -6.62167658      -5.12575604      -2.41504272
H       -0.23573463       0.04383974      -2.72520278
H       -1.65766664      -1.37938192      -4.14840887
H       -3.11572839      -3.41818168      -0.61618208
H       -1.69905989      -1.99304383       0.78099744
H       -5.69550799      -2.28814176      -4.08396713
H       -8.12591718      -2.06439979      -4.26228136
H       -8.65600760      -5.75153666      -2.09259583
H       -6.21047123      -5.99178313      -1.89835675
C       -0.88145785       0.88145785       0.88145785
C       -2.26032670       0.89695192       0.68510974
C       -3.06509627       1.70455196       1.49354042
C       -2.49246962       2.49878878       2.49853269
C       -1.10495345       2.47459967       2.68727604
C       -0.30097420       1.66425833       1.87819209
C       -3.39304220       3.35279246       3.31777369
O       -4.60541598       3.36438409       3.14061288
C       -2.81352450       4.27333740       4.36706742
O       -2.22003886       3.77498174       5.31678840
C       -2.93968475       5.74669416       4.20988917
C       -3.57240385       6.33002089       3.10418796
C       -3.65320083       7.72238850       2.99551863
C       -3.10216658       8.53101102       3.98836011
Br      -3.21477171      10.41116205       3.83662377
C       -2.47026369       7.96205616       5.09189617
C       -2.38895778       6.57138638       5.20213117
H       -2.71924199       0.28650780      -0.08865212
H       -4.14247135       1.70843995       1.33454613
H       -0.62256648       3.06435740       3.46316827
H        0.77477508       1.64819967       2.03768168
H       -4.02190979       5.72736694       2.31834015
H       -4.15221514       8.16428195       2.13610123
H       -2.04141774       8.58783209       5.87089025
H       -1.89576886       6.13520468       6.06963758
C        0.88145785      -0.88145785       0.88145785
C        0.61421419      -2.24462716       0.98354701
C        1.42279092      -3.04945097       1.79094677
C        2.49886489      -2.49247384       2.49845236
C        2.75849812      -1.12071743       2.38761361
C        1.94907680      -0.31678927       1.57755855
C        3.31576448      -3.39098615       3.35685772
O        3.07616927      -4.58941232       3.44483135
C        4.44336541      -2.82296562       4.18759829
O        5.39385864      -2.30992999       3.60802037
C        4.36160010      -2.86277485       5.67189314
C        3.25822746      -3.40183684       6.34654839
C        3.22272524      -3.40334871       7.74503401
C        4.28634770      -2.86647380       8.46871621
Br       4.23324166      -2.87173125      10.35758461
C        5.38831437      -2.32735192       7.80854972
C        5.42549841      -2.32533023       6.41164669
H       -0.21516269      -2.69138581       0.44087454
H        1.20796384      -4.11468149       1.86281211
H        3.59008500      -0.65175848       2.90824867
H        2.16363863       0.74615438       1.49362202
H        2.41772469      -3.83813578       5.81175641
H        2.36410180      -3.83014942       8.25834711
H        6.22217986      -1.91006053       8.36789969
H        6.29219797      -1.90448620       5.90392695
