141
Properties=species:S:1:pos:R:3 pbc="F F F"
C        0.00000000       0.00000000       0.00000000
O        6.23164241       1.68105924       1.62854662
C        6.51176345       2.68961651       0.97933502
N        5.64417094       3.26579505       0.07576890
N        4.40857022       2.66594070      -0.16369286
C        3.78257409       2.85501475      -1.38152744
O        4.25912445       3.58346804      -2.25221187
C        2.53424670       2.13886613      -1.52555321
C        1.64983766       2.05834741      -2.58515039
C        0.57434823       1.24025097      -2.15809915
C        0.86699925       0.86699925      -0.86699925
O        2.05478813       1.39949379      -0.47537925
C        7.87730262       3.36317115       1.04525900
O        7.74102160       4.76346160       0.80960644
C        8.87491080       5.51426245       0.98184165
C       10.16448638       5.04847189       0.70617094
C       11.26669286       5.89395778       0.85635035
C       11.07904489       7.20742519       1.27579803
C        9.79881905       7.68582827       1.54709800
C        8.68500441       6.84377429       1.40023403
C        7.30832906       7.37230859       1.69386867
H        5.91761603       4.05109757      -0.51565833
H        4.07155144       1.97782205       0.50903432
H        1.77255547       2.54475885      -3.54389677
H       -0.30513602       0.96447612      -2.72323637
H        8.49667202       2.89221777       0.27454965
H        8.29467647       3.18832303       2.04446739
H       10.34436393       4.04052551       0.34776746
H       12.26258232       5.52118789       0.63236746
H        9.66352227       8.71521728       1.87005815
H        6.69893160       7.36952070       0.78435841
H        7.34407523       8.40038610       2.07037599
H        6.82183789       6.75955639       2.46030606
C       12.21529791       8.08005040       1.42089911
C       13.16690981       8.81087402       1.54242127
Br      14.70558576       9.99255400       1.73891232
O        2.46217214      -4.37949671      -4.36683047
C        1.57162786      -4.60686249      -5.18681031
N        0.31588681      -4.04305431      -5.10702959
N        0.00570134      -3.21426802      -4.02963710
C       -1.30854536      -3.09125700      -3.61931392
O       -2.23034827      -3.65424031      -4.21021579
C       -1.49265117      -2.24536970      -2.46064517
C       -2.63211361      -1.90632794      -1.75489391
C       -2.22747928      -1.01566818      -0.72955089
C       -0.86699925      -0.86699925      -0.86699925
O       -0.40963907      -1.61229409      -1.90772800
C        1.73565555      -5.59797784      -6.33289247
O        0.94159149      -5.19069588      -7.44577237
C        1.10580943      -5.91554490      -8.59759613
C        1.39659097      -7.28335462      -8.62002368
C        1.49563847      -7.96332703      -9.83661173
C        1.29734260      -7.27716475     -11.03084990
C        1.00030457      -5.91586342     -11.02199047
C        0.89967125      -5.22345760      -9.80475833
C        0.57638641      -3.75502973      -9.80812567
H       -0.43800574      -4.30245822      -5.74390797
H        0.77559965      -2.84069135      -3.47524747
H       -3.63226751      -2.25870367      -1.97023991
H       -2.85445035      -0.53973778       0.01161166
H        1.41157316      -6.57275150      -5.95316181
H        2.79558804      -5.61969306      -6.61442709
H        1.52641033      -7.85578066      -7.70775164
H        1.71557979      -9.02753534      -9.83944720
H        0.84302145      -5.39070978     -11.96099307
H       -0.38708274      -3.57757745      -9.31943371
H        0.51309639      -3.35948765     -10.82769408
H        1.35844785      -3.19285238      -9.28668369
C        1.39050974      -7.98168031     -12.28327863
C        1.46853722      -8.57171209     -13.33218768
Br       1.59470105      -9.52574358     -15.02818491
O       -5.49238284       3.02569318      -2.23392098
C       -5.72783666       3.95612122      -1.46191293
N       -4.96230572       4.21712678      -0.34523541
N       -3.89908922       3.37128974      -0.03217519
C       -3.48542994       3.25229136       1.28139498
O       -3.99539076       3.91262977       2.18678383
C       -2.41029490       2.30593052       1.48244063
C       -1.75831191       1.90221680       2.63280674
C       -0.76200786       0.97662925       2.23406124
C       -0.86699925       0.86699925       0.86699925
O       -1.86628859       1.66213702       0.40123556
C       -6.93765718       4.87057269      -1.61301510
O       -6.63260718       6.16876312      -1.10649354
C       -7.58612102       7.13213741      -1.31092682
C       -8.96051350       6.87381675      -1.32754292
C       -9.87270925       7.91990928      -1.48831824
C       -9.41107766       9.22541117      -1.62581678
C       -8.04461896       9.49701714      -1.60408678
C       -7.12001601       8.45263975      -1.44411109
C       -5.64809097       8.75867931      -1.42000131
H       -5.21511263       4.93848816       0.33077114
H       -3.55466837       2.74516466      -0.75949386
H       -1.97821335       2.24911330       3.63388444
H       -0.05426754       0.46049892       2.86781001
H       -7.75291097       4.40803057      -1.04660140
H       -7.18665605       4.93142160      -2.67954553
H       -9.35629516       5.87292843      -1.19210162
H      -10.93814688       7.70602997      -1.49277410
H       -7.69531105      10.52143094      -1.70806060
H       -5.22360908       8.50399578      -0.44351097
H       -5.45523081       9.82143463      -1.60258010
H       -5.12974808       8.19277441      -2.20143427
C      -10.35307438      10.30331135      -1.78193653
C      -11.14199663      11.20605276      -1.91268683
Br     -12.41761718      12.66570926      -2.12409900
O       -2.42425652      -4.86226870       3.84614286
C       -1.57920109      -5.08785188       4.71339416
N       -0.36752844      -4.43223549       4.76949004
N       -0.04592836      -3.50399614       3.78013600
C        1.28085561      -3.25749581       3.48076486
O        2.19874300      -3.79723401       4.09882735
C        1.48150319      -2.31497598       2.40218687
C        2.63889345      -1.84348524       1.81095676
C        2.24115196      -0.90820988       0.82333651
C        0.86699925      -0.86699925       0.86699925
O        0.39525812      -1.71981415       1.81458889
C       -1.74793517      -6.17243628       5.77071366
O       -1.06785369      -5.79592155       6.96680890
C       -1.25744991      -6.61613085       8.04865066
C       -1.44413243      -7.99880602       7.95211374
C       -1.57690576      -8.77470326       9.10650279
C       -1.51634825      -8.16913326      10.35788704
C       -1.32390703      -6.79352166      10.46793470
C       -1.19045730      -6.00509713       9.31390484
C       -0.98092976      -4.52201353       9.44568521
H        0.35699934      -4.68540849       5.44196410
H       -0.80089792      -3.14467850       3.19655859
H        3.64523085      -2.13963014       2.07635010
H        2.88090834      -0.33411126       0.16755688
H       -1.32456251      -7.09011807       5.34878458
H       -2.82038528      -6.29040500       5.96851239
H       -1.46517727      -8.50787555       6.99442370
H       -1.71485486      -9.84891981       9.01733780
H       -1.27383885      -6.33156153      11.45095871
H       -0.00162809      -4.24020296       9.04551901
H       -1.02017700      -4.20174166      10.49252068
H       -1.76468158      -3.97848354       8.90728625
C       -1.64393902      -8.97175312      11.54663511
C       -1.75079630      -9.64394724      12.54221161
Br      -1.92357547     -10.73082829      14.15197462
