133
Properties=species:S:1:pos:R:3 pbc="F F F"
C        0.00000000       0.00000000       0.00000000
O        6.23164241       1.68105924       1.62854662
C        6.51176345       2.68961651       0.97933502
N        5.64417094       3.26579505       0.07576890
N        4.40857022       2.66594070      -0.16369286
C        3.78257409       2.85501475      -1.38152744
O        4.25912445       3.58346804      -2.25221187
C        2.53424670       2.13886613      -1.52555321
C        1.64983766       2.05834741      -2.58515039
C        0.57434823       1.24025097      -2.15809915
C        0.86699925       0.86699925      -0.86699925
O        2.05478813       1.39949379      -0.47537925
C        7.87730262       3.36317115       1.04525900
O        7.74102160       4.76346160       0.80960644
C        8.87491080       5.51426245       0.98184165
C       10.16448638       5.04847189       0.70617094
C       11.26669286       5.89395778       0.85635035
C       11.07904489       7.20742519       1.27579803
Br      12.57095669       8.35319100       1.46631723
C        9.79881905       7.68582827       1.54709800
C        8.68500441       6.84377429       1.40023403
C        7.30832906       7.37230859       1.69386867
H        5.91761603       4.05109757      -0.51565833
H        4.07155144       1.97782205       0.50903432
H        1.77255547       2.54475885      -3.54389677
H       -0.30513602       0.96447612      -2.72323637
H        8.49667202       2.89221777       0.27454965
H        8.29467647       3.18832303       2.04446739
H       10.34436393       4.04052551       0.34776746
H       12.26258232       5.52118789       0.63236746
H        9.66352227       8.71521728       1.87005815
H        6.69893160       7.36952070       0.78435841
H        7.34407523       8.40038610       2.07037599
H        6.82183789       6.75955639       2.46030606
O        2.46212276      -4.39257278      -4.35370502
C        1.57271564      -4.61980561      -5.17495497
N        0.31790809      -4.05344197      -5.09866321
N        0.00725077      -3.22199785      -4.02345671
C       -1.30754079      -3.09568358      -3.61589191
O       -2.22928892      -3.65803338      -4.20748206
C       -1.49224173      -2.24722400      -2.45920032
C       -2.63240090      -1.90464769      -1.75628686
C       -2.22802269      -1.01279891      -0.73187676
C       -0.86699925      -0.86699925      -0.86699925
O       -0.40907779      -1.61516370      -1.90541967
C        1.73703582      -5.61343012      -6.31882046
O        0.94588696      -5.20676421      -7.43399951
C        1.11091920      -5.93413474      -8.58411606
C        1.39911853      -7.30253926      -8.60336660
C        1.49919067      -7.98503280      -9.81845816
C        1.30449862      -7.30078445     -11.01438623
Br       1.42820171      -8.22920623     -12.65682594
C        1.01005632      -5.93890236     -11.00870329
C        0.90842099      -5.24397117      -9.79299450
C        0.58796092      -3.77493613      -9.79979376
H       -0.43525986      -4.31262321      -5.73648886
H        0.77680141      -2.84883316      -3.46830742
H       -3.63281481      -2.25552018      -1.97287610
H       -2.85549756      -0.53424785       0.00716894
H        1.41035745      -6.58685115      -5.93784644
H        2.79746183      -5.63771493      -6.59827902
H        1.52609242      -7.87346161      -7.68975279
H        1.71709497      -9.04966378      -9.81883393
H        0.85557927      -5.41525092     -11.94900974
H       -0.37610000      -3.59470212      -9.31329176
H        0.52738222      -3.38123032     -10.82023723
H        1.37009954      -3.21325796      -9.27792979
O       -5.42860102       3.11811120      -2.26255718
C       -5.66224428       4.04204600      -1.48224533
N       -4.90717968       4.28047639      -0.35345899
N       -3.85796993       3.41820895      -0.03797511
C       -3.46162878       3.27858726       1.27890024
O       -3.97456635       3.93419230       2.18604571
C       -2.40034918       2.31700145       1.48131541
C       -1.76714300       1.89177599       2.63441646
C       -0.77720247       0.95905801       2.23643788
C       -0.86699925       0.86699925       0.86699925
O       -1.85105365       1.67962334       0.39898418
C       -6.85917251       4.97275612      -1.63671386
O       -6.54480594       6.26104578      -1.11097496
C       -7.48423824       7.23821628      -1.31512291
C       -8.86131086       6.99670497      -1.35122850
C       -9.75897187       8.05556334      -1.51023492
C       -9.28019265       9.35694903      -1.62646963
Br     -10.49753012      10.78939768      -1.82909735
C       -7.91095603       9.61177849      -1.58518520
C       -7.00085954       8.55449491      -1.42680977
C       -5.52579014       8.84245281      -1.38147397
H       -5.15950698       4.99672776       0.32813720
H       -3.51228827       2.79668681      -0.76863591
H       -1.99495166       2.22934606       3.63691336
H       -0.08335643       0.42691551       2.87230454
H       -7.68665116       4.51336271      -1.08567374
H       -7.09454892       5.04930738      -2.70532419
H       -9.27059515       5.99911948      -1.23259266
H      -10.82675114       7.85461631      -1.52996470
H       -7.54823797      10.63307157      -1.67262814
H       -5.11617976       8.57105145      -0.40313732
H       -5.31809255       9.90490517      -1.54891238
H       -5.00484129       8.27968962      -2.16344269
O       -2.43593636      -4.78295735       3.93713405
C       -1.58287863      -5.00836133       4.79656224
N       -0.36251589      -4.36744383       4.82926914
N       -0.04188396      -3.45574307       3.82434466
C        1.28398503      -3.22976143       3.50536983
O        2.20280159      -3.77329666       4.11870612
C        1.48273523      -2.30336789       2.41256293
C        2.63835766      -1.85393119       1.80104660
C        2.23987083      -0.92609365       0.80673388
C        0.86699925      -0.86699925       0.86699925
O        0.39666293      -1.70191282       1.83108543
C       -1.75175963      -6.07746493       5.86950946
O       -1.05199333      -5.69468404       7.05218605
C       -1.23812803      -6.49888512       8.14657452
C       -1.44323571      -7.88018958       8.06983346
C       -1.57108832      -8.63989850       9.23549011
C       -1.48719526      -8.01958891      10.47827840
Br      -1.64813127      -9.05169953      12.05426219
C       -1.27624730      -6.64525117      10.56854545
C       -1.14755769      -5.87302100       9.40308137
C       -0.91791206      -4.39117295       9.51350809
H        0.36723056      -4.62133990       5.49580147
H       -0.79962208      -3.09422666       3.24573460
H        3.64419511      -2.15942421       2.05759177
H        2.87840511      -0.36833576       0.13583561
H       -1.34521912      -7.00560617       5.45395309
H       -2.82301469      -6.17941183       6.08213498
H       -1.48271207      -8.40085157       7.11898247
H       -1.72353205      -9.71331615       9.16161864
H       -1.20801961      -6.17174173      11.54495929
H        0.05969714      -4.12675682       9.09763994
H       -0.93994649      -4.05740658      10.55662525
H       -1.70156130      -3.84454667       8.97810285
