154
Properties=species:S:1:pos:R:3 pbc="F F F"
O        7.14154644       2.59096326       0.71864259
C        7.42166748       3.59952054       0.06943100
N        6.55407496       4.17569908      -0.83413512
N        5.31847424       3.57584473      -1.07359688
C        4.69247811       3.76491878      -2.29143146
O        5.16902847       4.49337206      -3.16211590
C        3.44415072       3.04877016      -2.43545724
C        2.55974168       2.96825144      -3.49505441
C        1.48425225       2.15015500      -3.06800318
C        1.77690328       1.77690328      -1.77690328
O        2.96469215       2.30939782      -1.38528327
C        8.78720665       4.27307517       0.13535498
O        8.65092563       5.67336562      -0.10029759
C        9.78481483       6.42416648       0.07193763
C       11.07439040       5.95837591      -0.20373309
C       12.17659688       6.80386180      -0.05355368
C       11.98894892       8.11732921       0.36589401
Br      13.48086071       9.26309502       0.55641321
C       10.70872307       8.59573230       0.63719397
C        9.59490844       7.75367832       0.49033001
C        8.21823308       8.28221261       0.78396465
H        6.82752006       4.96100160      -1.42556235
H        4.98145547       2.88772607      -0.40086970
H        2.68245949       3.45466287      -4.45380080
H        0.60476801       1.87438015      -3.63314039
H        9.40657604       3.80212180      -0.63535438
H        9.20458049       4.09822706       1.13456336
H       11.25426795       4.95042953      -0.56213656
H       13.17248635       6.43109192      -0.27753656
H       10.57342629       9.62512130       0.96015412
H        7.60883562       8.27942473      -0.12554562
H        8.25397925       9.31029012       1.16047197
H        7.73174191       7.66946041       1.55040204
O        1.54536214      -5.06233824      -5.49689101
C        0.63582500      -5.29268479      -6.29489723
N       -0.63406021      -4.77379806      -6.15605089
N       -0.93476030      -3.99087937      -5.04227618
C       -2.23791529      -3.92489871      -4.58601436
O       -3.16026215      -4.49891362      -5.16534066
C       -2.41051875      -3.12332066      -3.39453871
C       -3.53620551      -2.84523536      -2.64160666
C       -3.12657276      -1.97506852      -1.60076914
C       -1.77690328      -1.77690328      -1.77690328
O       -1.33065359      -2.47270644      -2.85601321
C        0.79346330      -6.24040791      -7.47798223
O       -0.04985613      -5.82415406      -8.55057864
C        0.09921371      -6.50570493      -9.73055246
C        0.43294991      -7.86166032      -9.80778899
C        0.51332185      -8.49846550     -11.04886871
C        0.25345412      -7.78120420     -12.21263404
Br       0.35074290      -8.64826930     -13.89001613
C       -0.08677355      -6.43152167     -12.14896617
C       -0.16910827      -5.78236984     -10.90677864
C       -0.53940814      -4.32615473     -10.85091819
H       -1.39997336      -5.03749669      -6.77661395
H       -0.15927481      -3.60994387      -4.50083256
H       -4.53110974      -3.22355743      -2.83625599
H       -3.74354430      -1.54434143      -0.82440281
H        0.51371826      -7.23713115      -7.12063933
H        1.84359898      -6.21780063      -7.79404255
H        0.61138005      -8.45851110      -8.91970300
H        0.76717616      -9.55413030     -11.09416068
H       -0.29200570      -5.88194567     -13.06444210
H       -1.49130740      -4.19665021     -10.32584836
H       -0.64925600      -3.90033407     -11.85420734
H        0.24106345      -3.75535600     -10.33650774
O       -6.51964689       3.75856989      -1.26434968
C       -6.75903629       4.70101885      -0.50829813
N       -5.97473805       5.00492843       0.58424269
N       -4.88549271       4.19074067       0.89168247
C       -4.43967144       4.11145082       2.19770610
O       -4.94418281       4.78083682       3.09949680
C       -3.33872061       3.19447534       2.39518216
C       -2.65181046       2.83222797       3.53900910
C       -1.64365889       1.92039438       3.13835715
C       -1.77690328       1.77690328       1.77690328
O       -2.80452933       2.53833603       1.31650788
C       -7.99273942       5.58421601      -0.65202858
O       -7.70638274       6.90030128      -0.18209518
C       -8.68624478       7.83694665      -0.38614775
C      -10.05433452       7.54737392      -0.36520904
C      -10.99382420       8.56863405      -0.52844589
C      -10.56566384       9.88069602      -0.70597574
Br     -11.83915791      11.26262144      -0.91423682
C       -9.20569499      10.18348621      -0.72191980
C       -8.25386221       9.16420173      -0.55980719
C       -6.78922295       9.50384157      -0.57658347
H       -6.22881212       5.73581259       1.24945930
H       -4.54320782       3.55592558       0.17091784
H       -2.85702121       3.19708676       4.53681519
H       -0.91007973       1.43512392       3.76708489
H       -8.78411676       5.11659658      -0.05666112
H       -8.26707138       5.61480236      -1.71362956
H      -10.42375570       6.54120480      -0.19812645
H      -12.05387135       8.33072948      -0.50348601
H       -8.88255646      11.21284643      -0.85700942
H       -6.33705704       9.28140205       0.39534688
H       -6.62510868      10.56618015      -0.78749143
H       -6.27571710       8.93188970      -1.35680651
O       -1.54289796      -5.53140914       5.02535593
C       -0.67422111      -5.75704680       5.86893132
N        0.56199303      -5.14653789       5.85537824
N        0.87950411      -4.26825064       4.82016110
C        2.20205924      -4.08374495       4.46302417
O        3.12240481      -4.63503727       5.06707435
C        2.39590719      -3.18986086       3.34261007
C        3.54643817      -2.78494518       2.69166417
C        3.14594336      -1.87211142       1.68435564
C        1.77690328      -1.77690328       1.77690328
O        1.31064091      -2.57567673       2.77305560
C       -0.84223468      -6.79479549       6.97236603
O       -0.10361279      -6.40079483       8.12740679
C       -0.28180372      -7.17284210       9.24600530
C       -0.52274119      -8.54999786       9.20924273
C       -0.63979093      -9.27729710      10.39650620
C       -0.50929115      -8.62888371      11.62079156
Br      -0.65575145      -9.61747395      13.22582003
C       -0.26234707      -7.25850468      11.67110379
C       -0.14414761      -6.51870837      10.48369598
C        0.12463939      -5.04086156      10.55098011
H        1.30186280      -5.40228695       6.50993425
H        0.11653073      -3.90207598       4.25144453
H        4.55060383      -3.10932806       2.93099127
H        3.78087631      -1.34734751       0.98406472
H       -0.46929918      -7.74285927       6.57049213
H       -1.90996494      -6.86439210       7.21381703
H       -0.59902605      -9.09275721       8.27310289
H       -0.82044194     -10.34801679      10.35353997
H       -0.15784460      -6.76296496      12.63327311
H        1.09765140      -4.81153776      10.10461681
H        0.13717855      -4.68105594      11.58556292
H       -0.65857901      -4.48797387      10.02140543
C       -0.00445707       0.01189536      -1.78238275
H       -0.66409135       0.67374010      -2.43557963
H        0.65740317      -0.63156657      -2.45157240
C       -0.90989263      -0.90692880      -0.91072765
C        0.90977584       0.90977584      -0.90977584
C       -0.00465871       1.77757030       0.00794375
H       -0.66225468       2.44313916      -0.64384735
H        0.64322798       2.43503045       0.67728295
C       -1.78241447       0.00034974      -0.00472694
H       -2.45427497      -0.65498947       0.64260836
H       -2.43311707       0.67328779      -0.65473579
C       -0.91132561       0.90220522       0.91563759
C       -0.01476271      -0.02253852       1.78660255
H       -0.67934791      -0.69751639       2.42135241
H        0.63392994       0.61504881       2.47327442
C        0.01484550      -1.77751727      -0.01636693
H        0.67870853      -2.42144646      -0.68295456
H       -0.62264859      -2.45592969       0.64226336
C        1.78714474       0.01002794       0.00389507
H        2.44202412       0.67113390       0.66197326
H        2.45385902      -0.65136977      -0.64189061
C        0.91606151      -0.90478549       0.90901405
