146
Properties=species:S:1:pos:R:3 pbc="F F F"
C        4.69123953       2.26797836       0.35631138
O        3.33506834       2.06723671      -0.02123192
C        2.99946267       2.34374170      -1.31920392
C        3.75650900       3.15308302      -2.17169426
C        3.32908627       3.39912102      -3.48278311
C        2.13636485       2.84111156      -3.96104923
C        1.37035775       2.03733208      -3.10896310
C        1.79847120       1.79847120      -1.79847120
C        1.72457635       3.14259768      -5.36080897
O        2.33497092       3.91080852      -6.09020703
O        0.58996531       2.41816051      -5.66804978
C        0.06625198       2.64163889      -6.94690730
C       -1.07748520       3.43942760      -7.03142545
C       -1.69474346       3.62704580      -8.26637112
C       -1.16688977       3.00971067      -9.39948397
Br      -2.00691173       3.25708809     -11.07561456
C       -0.02934590       2.20231904      -9.30887412
C        0.59269275       1.98903327      -8.06963396
C        1.82029525       1.13028306      -7.99183249
H        4.82272191       1.85016896       1.35913557
H        4.93094516       3.33459539       0.40687867
H        5.37403818       1.73963474      -0.31760557
H        4.67876906       3.62229311      -1.84217126
H        3.93259094       4.03638501      -4.12843360
H        0.43699518       1.59542326      -3.44946956
H       -1.48688229       3.90895604      -6.14190878
H       -2.58343677       4.24880291      -8.33535232
H        0.37033021       1.73009661     -10.20362672
H        2.71682879       1.74896013      -8.09556854
H        1.82193897       0.37766640      -8.78745275
H        1.86647712       0.58838158      -7.04207224
C       -1.50425374      -0.09805094      -5.00060183
O       -1.55835172      -0.27453493      -3.59065032
C       -2.08601309      -1.44943264      -3.12696256
C       -2.90964576      -2.29242989      -3.87921063
C       -3.42246318      -3.46947055      -3.31905667
C       -3.12116296      -3.82064849      -1.99671419
C       -2.30427693      -2.97581608      -1.23655992
C       -1.79847120      -1.79847120      -1.79847120
C       -3.70036939      -5.07912403      -1.44848958
O       -4.48425469      -5.78378785      -2.06794393
O       -3.20062403      -5.29585328      -0.17969829
C       -3.69957919      -6.42891096       0.47369198
C       -4.65190623      -6.21459733       1.47313571
C       -5.12172699      -7.29456029       2.21761382
C       -4.62921825      -8.57314420       1.96005759
Br      -5.26009659     -10.03957142       2.97387709
C       -3.66738376      -8.78183861       0.96737512
C       -3.17112652      -7.70203171       0.22179825
C       -2.14866093      -7.94501804      -0.84873184
H       -0.91492642       0.80200882      -5.20083770
H       -2.50457553       0.06095591      -5.41504225
H       -1.00251314      -0.94084533      -5.48792002
H       -3.18602844      -2.05498836      -4.90221663
H       -4.06579087      -4.10944355      -3.92217513
H       -2.05789351      -3.21838126      -0.20561323
H       -5.02309950      -5.21379343       1.67291040
H       -5.86405600      -7.13100982       2.99434737
H       -3.29576312      -9.78655348       0.77826306
H       -2.64500357      -8.10580852      -1.81054536
H       -1.54247024      -8.82729606      -0.61729183
H       -1.45861337      -7.10022058      -0.93809699
C       -4.95041848       1.66481734      -0.01232932
O       -3.54606245       1.66660573       0.21086878
C       -3.10481848       2.14078939       1.41680042
C       -3.85778222       2.96144287       2.26206119
C       -3.32071997       3.41754106       3.47272937
C       -2.02102598       3.06161391       3.85588575
C       -1.25988789       2.24749731       3.00926774
C       -1.79847120       1.79847120       1.79847120
C       -1.49644807       3.58181955       5.14971537
O       -2.11345786       4.36280440       5.85972420
O       -0.25215386       3.03372931       5.39029244
C        0.37905630       3.47430529       6.55954919
C        1.41499659       4.39944491       6.40891953
C        2.13802099       4.80960528       7.52708917
C        1.82271594       4.28522189       8.77979891
Br       2.80717530       4.83500102      10.29796521
C        0.79341129       3.35054118       8.92471736
C        0.06843826       2.91400365       7.80579459
C       -1.04170504       1.92023206       7.98047371
H       -5.13954724       1.11153100      -0.93732294
H       -5.32715793       2.68286684      -0.15136290
H       -5.48113273       1.15275010       0.79739566
H       -4.86301343       3.27894527       2.00127473
H       -3.92377010       4.05964699       4.11399245
H       -0.24593390       1.95953598       3.27641812
H        1.65951774       4.79566338       5.42783689
H        2.94308984       5.53070661       7.41310169
H        0.55939853       2.95341820       9.91003386
H       -1.99193417       2.44269702       8.12672625
H       -0.85906917       1.27880364       8.84918532
H       -1.12512978       1.26089914       7.11090202
C       -0.38280472      -2.32414010       4.66157112
O        0.20684245      -1.67377126       3.54292325
C        1.40522682      -2.16138653       3.09579494
C        2.26228554      -2.96104360       3.85795714
C        3.48123177      -3.40240962       3.32734901
C        3.86302279      -3.04891236       2.02659049
C        3.01271724      -2.24135835       1.26257735
C        1.79847120      -1.79847120       1.79847120
C        5.17400770      -3.53858729       1.51538799
O        5.96729109      -4.17137118       2.19732420
O        5.31160871      -3.17376013       0.19080677
C        6.52566261      -3.53461211      -0.40547654
C        7.46600961      -2.51817679      -0.59081855
C        8.65768451      -2.79752229      -1.25653334
C        8.89187180      -4.08576948      -1.73533642
Br      10.50545303      -4.46574183      -2.64540393
C        7.94326070      -5.09720702      -1.55862046
C        6.73085036      -4.82704621      -0.90653659
C        5.72909058      -5.92694387      -0.71362364
H       -1.39455228      -1.92524688       4.78306071
H        0.17221764      -2.10700131       5.57944292
H       -0.46722516      -3.40335379       4.49514986
H        2.01912786      -3.24717265       4.87693293
H        4.13560176      -4.02118963       3.94061816
H        3.28444163      -1.94525681       0.25218957
H        7.27103272      -1.51538895      -0.22243915
H        9.39184491      -2.00920299      -1.40032945
H        8.14345549      -6.09733907      -1.93674103
H        5.89322713      -6.41758127       0.25054905
H        5.81547403      -6.67779890      -1.50621481
H        4.70502363      -5.54256104      -0.75065372
C       -0.00445707       0.01189536      -1.78238275
H       -0.66409135       0.67374010      -2.43557963
H        0.65740317      -0.63156657      -2.45157240
C       -0.90989263      -0.90692880      -0.91072765
C        0.90977584       0.90977584      -0.90977584
C       -0.00465871       1.77757030       0.00794375
H       -0.66225468       2.44313916      -0.64384735
H        0.64322798       2.43503045       0.67728295
C       -1.78241447       0.00034974      -0.00472694
H       -2.45427497      -0.65498947       0.64260836
H       -2.43311707       0.67328779      -0.65473579
C       -0.91132561       0.90220522       0.91563759
C       -0.01476271      -0.02253852       1.78660255
H       -0.67934791      -0.69751639       2.42135241
H        0.63392994       0.61504881       2.47327442
C        0.01484550      -1.77751727      -0.01636693
H        0.67870853      -2.42144646      -0.68295456
H       -0.62264859      -2.45592969       0.64226336
C        1.78714474       0.01002794       0.00389507
H        2.44202412       0.67113390       0.66197326
H        2.45385902      -0.65136977      -0.64189061
C        0.91606151      -0.90478549       0.90901405
