158
Properties=species:S:1:pos:R:3 pbc="F F F"
C       -1.89413489       4.22021224      -8.04272054
C       -1.64129949       4.60217796      -6.78586933
C       -0.26283540       4.85341065      -6.23292297
C        0.30276625       3.67863153      -5.39567221
H        0.36685865       2.81094216      -6.06423492
N       -0.57771347       3.35699264      -4.26392318
C       -0.08002599       2.19576055      -3.49767435
H       -0.75912224       2.14215711      -2.63882936
C       -0.16663543       0.84532283      -4.27040124
C       -1.55997968       0.49299670      -4.72739791
C       -1.91073792       0.32897859      -6.01084406
C        1.33315363       2.42380857      -2.97713106
C        1.79972581       1.79972581      -1.79972581
C        3.11623670       1.97807638      -1.36689948
C        3.99049806       2.77545745      -2.09747443
C        3.54811307       3.41437103      -3.25605587
Br       4.80895006       4.51075110      -4.16429394
C        2.22331355       3.25232594      -3.70998281
C        1.72179421       4.03155432      -4.91020328
H       -2.91515456       4.06796807      -8.37993013
H       -1.09790465       4.04622788      -8.75767514
H       -2.47486100       4.76915049      -6.10342023
H       -0.30313605       5.76673362      -5.62502656
H        0.43068530       5.06883852      -7.05691931
H       -1.50155578       3.11934650      -4.62790953
H        0.17429238       0.02564412      -3.62555746
H        0.52884054       0.84217302      -5.11963254
H       -2.30726472       0.34921424      -3.95173527
H       -1.19740109       0.45460725      -6.81942291
H       -2.92806134       0.06250556      -6.27848988
H        3.47128638       1.50059682      -0.45614314
H        5.01097111       2.90487632      -1.74610270
H        1.75415645       5.09426291      -4.63624568
H        2.40444107       3.87764602      -5.75451766
C       -8.55391616      -3.28093117       1.46604945
C       -7.98519610      -2.39851095       0.63695924
C       -7.37718710      -2.75091682      -0.69539429
C       -5.83289592      -2.87526792      -0.66890615
H       -5.58896334      -3.68421567       0.03114329
N       -5.20459296      -1.62858716      -0.21002224
C       -3.73554304      -1.75869586      -0.11917001
H       -3.40021236      -0.74317675       0.12152487
C       -3.25505791      -2.71093499       1.01690426
C       -3.73665253      -2.31341211       2.38964970
C       -4.51153592      -3.08383736       3.16628857
C       -3.11894179      -2.16324270      -1.45190877
C       -1.79972581      -1.79972581      -1.79972581
C       -1.23220756      -2.22556201      -3.00344299
C       -1.96373774      -3.02118792      -3.87850428
C       -3.27430026      -3.38084842      -3.56339129
Br      -4.20239993      -4.44073439      -4.84086078
C       -3.86914299      -2.95988186      -2.35659747
C       -5.32600412      -3.26755353      -2.06999416
H       -8.98490483      -2.95637544       2.40853663
H       -8.59867686      -4.33837449       1.23105299
H       -7.96737613      -1.34428061       0.91394702
H       -7.68306937      -1.98524457      -1.42031020
H       -7.80376113      -3.69657642      -1.05610559
H       -5.55794466      -1.41048132       0.72272574
H       -2.15850517      -2.72123537       1.05424658
H       -3.53808262      -3.74814452       0.79558103
H       -3.40896277      -1.34651529       2.76179327
H       -4.85723522      -4.05997020       2.84057635
H       -4.81646799      -2.74885384       4.15238774
H       -0.21750011      -1.93908429      -3.27144194
H       -1.50782557      -3.34269149      -4.81143307
H       -5.91843700      -2.73833891      -2.82788913
H       -5.50116663      -4.34315828      -2.19227984
C        2.17171840       5.10092996       7.43958633
C        1.77767782       5.34055114       6.18387449
C        0.33953173       5.42010622       5.74292372
C       -0.18315690       4.12806929       5.06584380
H       -0.10833861       3.32447633       5.80922079
N        0.62352658       3.77840234       3.88832659
C        0.17300866       2.51225719       3.27416039
H        0.77818717       2.43678191       2.36326950
C        0.45140534       1.25245030       4.14804366
C        1.90556728       1.06490966       4.50107256
C        2.37861574       1.05234146       5.75535900
C       -1.29463144       2.56887843       2.87058338
C       -1.79972581       1.79972581       1.79972581
C       -3.15932362       1.82352852       1.47836043
C       -4.03867826       2.60808139       2.21667029
C       -3.56057396       3.38811462       3.26985139
Br      -4.83617496       4.45281962       4.19500051
C       -2.19247589       3.38316967       3.60997675
C       -1.66528628       4.31134021       4.68692532
H        3.22758836       5.06880104       7.69153097
H        1.45934626       4.92716827       8.23817636
H        2.53051634       5.51359284       5.41463322
H        0.24203113       6.27260788       5.05804738
H       -0.29808164       5.65160456       6.60675693
H        1.59328695       3.65575560       4.18323160
H        0.13479697       0.34987248       3.61041845
H       -0.16553100       1.26932962       5.05578549
H        2.59393912       0.91360074       3.67402317
H        1.72843250       1.19162744       6.61343414
H        3.43556121       0.90007843       5.94841687
H       -3.54471147       1.23429175       0.64902312
H       -5.09308089       2.61629043       1.95257882
H       -1.82028466       5.33706300       4.32731737
H       -2.25580698       4.17931472       5.60148305
C        8.56357125      -3.26048500      -1.45525837
C        7.99136085      -2.38092144      -0.62553449
C        7.38135816      -2.73728696       0.70485309
C        5.83738143      -2.86473158       0.67495698
H        5.59652943      -3.67274322      -0.02723692
N        5.20746991      -1.61839947       0.21733297
C        3.73887709      -1.75131681       0.12321501
H        3.40196405      -0.73599384      -0.11609366
C        3.26265510      -2.70221077      -1.01577724
C        3.74623412      -2.30090363      -2.38672281
C        4.52427129      -3.06815956      -3.16334613
C        3.12038791      -2.15984138       1.45386397
C        1.79972581      -1.79972581       1.79972581
C        1.23062594      -2.22917604       3.00141060
C        1.96199444      -3.02509488       3.87634062
C        3.27392858      -3.38143851       3.56317288
Br       4.20158524      -4.44203761       4.84037226
C        3.87036904      -2.95679592       2.35845736
C        5.32843685      -3.26091094       2.07420402
H        8.99581647      -2.93312677      -2.39619961
H        8.61001279      -4.31831271      -1.22232713
H        7.97195210      -1.32616601      -0.90040839
H        7.68419730      -1.97247514       1.43195169
H        7.80912681      -3.68280986       1.06450647
H        5.56227608      -1.39766885      -0.71424469
H        2.16620410      -2.71467023      -1.05538037
H        3.54734619      -3.73929112      -0.79599121
H        3.41732926      -1.33391867      -2.75756313
H        4.87129914      -4.04424894      -2.83891901
H        4.83052804      -2.73054147      -4.14813542
H        0.21479118      -1.94531551       3.26791965
H        1.50483908      -3.34943224       4.80767881
H        5.91824120      -2.73203898       2.83438486
H        5.50554652      -4.33640392       2.19465430
C       -0.00445707       0.01189536      -1.78238275
H       -0.66409135       0.67374010      -2.43557963
H        0.65740317      -0.63156657      -2.45157240
C       -0.90989263      -0.90692880      -0.91072765
C        0.90977584       0.90977584      -0.90977584
C       -0.00465871       1.77757030       0.00794375
H       -0.66225468       2.44313916      -0.64384735
H        0.64322798       2.43503045       0.67728295
C       -1.78241447       0.00034974      -0.00472694
H       -2.45427497      -0.65498947       0.64260836
H       -2.43311707       0.67328779      -0.65473579
C       -0.91132561       0.90220522       0.91563759
C       -0.01476271      -0.02253852       1.78660255
H       -0.67934791      -0.69751639       2.42135241
H        0.63392994       0.61504881       2.47327442
C        0.01484550      -1.77751727      -0.01636693
H        0.67870853      -2.42144646      -0.68295456
H       -0.62264859      -2.45592969       0.64226336
C        1.78714474       0.01002794       0.00389507
H        2.44202412       0.67113390       0.66197326
H        2.45385902      -0.65136977      -0.64189061
C        0.91606151      -0.90478549       0.90901405
