166
Properties=species:S:1:pos:R:3 pbc="F F F"
C       -1.89413489       4.22021224      -8.04272054
C       -1.64129949       4.60217796      -6.78586933
C       -0.26283540       4.85341065      -6.23292297
C        0.30276625       3.67863153      -5.39567221
H        0.36685865       2.81094216      -6.06423492
N       -0.57771347       3.35699264      -4.26392318
C       -0.08002599       2.19576055      -3.49767435
H       -0.75912224       2.14215711      -2.63882936
C       -0.16663543       0.84532283      -4.27040124
C       -1.55997968       0.49299670      -4.72739791
C       -1.91073792       0.32897859      -6.01084406
C        1.33315363       2.42380857      -2.97713106
C        1.79972581       1.79972581      -1.79972581
C        3.11623670       1.97807638      -1.36689948
C        3.99049806       2.77545745      -2.09747443
C        3.54811307       3.41437103      -3.25605587
C        2.22331355       3.25232594      -3.70998281
C        1.72179421       4.03155432      -4.91020328
H       -2.91515456       4.06796807      -8.37993013
H       -1.09790465       4.04622788      -8.75767514
H       -2.47486100       4.76915049      -6.10342023
H       -0.30313605       5.76673362      -5.62502656
H        0.43068530       5.06883852      -7.05691931
H       -1.50155578       3.11934650      -4.62790953
H        0.17429238       0.02564412      -3.62555746
H        0.52884054       0.84217302      -5.11963254
H       -2.30726472       0.34921424      -3.95173527
H       -1.19740109       0.45460725      -6.81942291
H       -2.92806134       0.06250556      -6.27848988
H        3.47128638       1.50059682      -0.45614314
H        5.01097111       2.90487632      -1.74610270
H        1.75415645       5.09426291      -4.63624568
H        2.40444107       3.87764602      -5.75451766
C        4.50281513       4.24454679      -3.94377106
C        5.30237810       4.93981899      -4.51973254
Br       6.59520379       6.06401534      -5.45101354
C       -8.57523989      -3.23559576       1.44203776
C       -7.99878627      -2.35952143       0.61155989
C       -7.38637265      -2.72070773      -0.71641782
C       -5.84279666      -2.85190832      -0.68236501
H       -5.60569847      -3.65876590       0.02242864
N       -5.21092428      -1.60600859      -0.22626948
C       -3.74290470      -1.74233506      -0.12816915
H       -3.40406191      -0.72725908       0.10945676
C       -3.27187724      -2.69157157       1.01436018
C       -3.75785680      -2.28565673       2.38309860
C       -4.53972480      -3.04904549       3.15968557
C       -3.12213375      -2.15570181      -1.45625770
C       -1.79972581      -1.79972581      -1.79972581
C       -1.22871592      -2.23357472      -2.99892192
C       -1.95988877      -3.02985028      -3.87369089
C       -3.27347830      -3.38215735      -3.56290433
C       -3.87184808      -2.95304065      -2.36073358
C       -5.33136872      -3.25282875      -2.07935434
H       -9.00900293      -2.90482639       2.38108569
H       -8.62373452      -4.29388111       1.21161727
H       -7.97743597      -1.30413691       0.88386316
H       -7.68550327      -1.95695785      -1.44616301
H       -7.81559824      -3.66605799      -1.07478691
H       -5.56749076      -1.38208162       0.70387214
H       -2.17556226      -2.70665311       1.05672142
H       -3.55860096      -3.72848582       0.79644068
H       -3.42746876      -1.31857140       2.75235537
H       -4.88837353      -4.02507477       2.83681923
H       -4.84758343      -2.70821988       4.14286921
H       -0.21152003      -1.95289953      -3.26360679
H       -1.50123206      -3.35763671      -4.80308136
H       -5.91796758      -2.72438751      -2.84230995
H       -5.51085372      -4.32817525      -2.19757578
C       -3.97549085      -4.18589762      -4.52974452
C       -4.56342636      -4.85903009      -5.33947318
Br      -5.51406836      -5.94742837      -6.64873594
C        2.14100769       4.97980272       7.53000285
C        1.76589396       5.24004240       6.27259937
C        0.33454199       5.34326896       5.81477124
C       -0.19563389       4.06649534       5.11494076
H       -0.14025581       3.25280373       5.84897619
N        0.62144230       3.72138543       3.94325922
C        0.16295366       2.46880183       3.30756074
H        0.77860904       2.39705921       2.40341407
C        0.41453328       1.19476574       4.16885617
C        1.86166199       0.98446575       4.53761118
C        2.31862349       0.95026228       5.79744593
C       -1.29864640       2.54900447       2.88644239
C       -1.79972581       1.79972581       1.79972581
C       -3.15474954       1.84472307       1.46173996
C       -4.03350466       2.63105158       2.19887370
C       -3.55905178       3.39177097       3.26771721
C       -2.19553088       3.36528686       3.62480457
C       -1.67045166       4.27320300       4.71989715
H        3.19312511       4.93118657       7.79468218
H        1.41648392       4.80510461       8.31737767
H        2.53049773       5.41314273       5.51506473
H        0.25635620       6.20541799       5.13956234
H       -0.31100062       5.57200746       6.67343506
H        1.58579071       3.58281798       4.24867298
H        0.09350397       0.30304387       3.61595406
H       -0.21356972       1.20810959       5.06896679
H        2.55849109       0.83480320       3.71737268
H        1.65943469       1.08703374       6.64903002
H        3.37106099       0.78225248       6.00174260
H       -3.53694846       1.27080373       0.62027415
H       -5.08430002       2.65588471       1.92176540
H       -1.80807552       5.30521229       4.37137724
H       -2.27408816       4.13724654       5.62527005
C       -4.52357211       4.20130022       3.96626065
C       -5.33135789       4.87928096       4.55129078
Br      -6.63747917       5.97551848       5.49723502
C        8.58578885      -3.21292232      -1.42991328
C        8.00547511      -2.34003786      -0.59876516
C        7.39088053      -2.70561642       0.72700126
C        5.84768676      -2.84022926       0.68915397
H        5.61401182      -3.64602161      -0.01799771
N        5.21402545      -1.59473101       0.23444588
C        3.74654414      -1.73415373       0.13271104
H        3.40594005      -0.71931058      -0.10338640
C        3.28025353      -2.68186122      -1.01302612
C        3.76840550      -2.27174786      -2.37973843
C        4.55375536      -3.03160500      -3.15627563
C        3.12371027      -2.15193161       1.45845138
C        1.79972581      -1.79972581       1.79972581
C        1.22699059      -2.23758115       2.99664083
C        1.95798630      -3.03418178       3.87126185
C        3.27307018      -3.38281268       3.56265712
C        3.87318260      -2.94962093       2.36281878
C        5.33401134      -3.24546980       2.08407067
H        9.02092332      -2.87904586      -2.36722553
H        8.63616048      -4.27161478      -1.20177690
H        7.98234894      -1.28408994      -0.86872916
H        7.68662884      -1.94284783       1.45914746
H        7.82143595      -3.65080346       1.08420372
H        5.57218574      -1.36789113      -0.69437662
H        2.18407413      -2.69932550      -1.05790567
H        3.56883287      -3.71861571      -0.79680248
H        3.43666249      -1.30457771      -2.74755540
H        4.90388413      -4.00757264      -2.83482769
H        4.86306305      -2.68785700      -4.13798596
H        0.20856539      -1.95980714       3.25965382
H        1.49797336      -3.36510973       4.79886704
H        5.91768459      -2.71743393       2.84954652
H        5.51566503      -4.32067288       2.20026684
C        3.97471447      -4.18715257       4.52926594
C        4.56234157      -4.86078723       5.33880083
Br       5.51248489      -5.94999749       6.64775028
C       -0.00445707       0.01189536      -1.78238275
H       -0.66409135       0.67374010      -2.43557963
H        0.65740317      -0.63156657      -2.45157240
C       -0.90989263      -0.90692880      -0.91072765
C        0.90977584       0.90977584      -0.90977584
C       -0.00465871       1.77757030       0.00794375
H       -0.66225468       2.44313916      -0.64384735
H        0.64322798       2.43503045       0.67728295
C       -1.78241447       0.00034974      -0.00472694
H       -2.45427497      -0.65498947       0.64260836
H       -2.43311707       0.67328779      -0.65473579
C       -0.91132561       0.90220522       0.91563759
C       -0.01476271      -0.02253852       1.78660255
H       -0.67934791      -0.69751639       2.42135241
H        0.63392994       0.61504881       2.47327442
C        0.01484550      -1.77751727      -0.01636693
H        0.67870853      -2.42144646      -0.68295456
H       -0.62264859      -2.45592969       0.64226336
C        1.78714474       0.01002794       0.00389507
H        2.44202412       0.67113390       0.66197326
H        2.45385902      -0.65136977      -0.64189061
C        0.91606151      -0.90478549       0.90901405
