153
Properties=species:S:1:pos:R:3 pbc="F F F"
C        0.00000000       0.00000000       0.00000000
O        4.46545727       7.09933175      -4.42579737
C        4.76164079       7.22884418      -5.60901812
C        4.28828703       6.24029153      -6.66347629
C        3.59093872       5.02346338      -6.05589193
C        4.55965690       4.11093218      -5.30267986
C        3.80796925       2.95142801      -4.68142593
O        3.68265090       1.89844840      -5.29527784
N        3.28976055       3.25207685      -3.43393533
C        2.49514357       2.41973911      -2.61698173
C        2.04284215       1.15591736      -3.00029593
C        1.24122848       0.39373291      -2.14268997
C        0.88626804       0.88626804      -0.88626804
C        1.33907347       2.14689047      -0.48939413
Cl       0.95481770       2.83243673       1.05043344
C        2.13720173       2.90839718      -1.35435025
N        5.52896248       8.24262592      -6.15620713
C        6.22951250       9.24923297      -5.45880850
C        6.34350213       9.29201800      -4.06810098
C        7.07746270      10.30597321      -3.44322361
C        7.70488793      11.29297955      -4.20423854
Br       8.68167289      12.62876923      -3.27545808
C        7.59684949      11.26015124      -5.59668295
Cl       8.33918036      12.44100351      -6.61748860
C        6.86505535      10.23896772      -6.21822653
H        5.14501590       5.92035659      -7.26766728
H        3.58485425       6.76611573      -7.31975323
H        3.11815188       4.44890019      -6.86248631
H        2.77860692       5.34508793      -5.39221963
H        5.10203599       4.64661181      -4.51664839
H        5.31860536       3.70583228      -5.98216141
H        3.51613396       4.16828050      -3.06086339
H        2.28641503       0.73040749      -3.96943680
H        0.89925735      -0.58441388      -2.47411257
H        2.47972738       3.88774670      -1.02857514
H        5.57690096       8.28023424      -7.16790186
H        5.88396295       8.54142455      -3.43203006
H        7.15201019      10.30824088      -2.35791872
H        6.79418212      10.22935564      -7.30315840
O       -6.42413620      -3.57896354      -5.98748665
C       -7.10318231      -4.59665385      -5.89966692
C       -7.11764622      -5.44020431      -4.63420433
C       -6.08093726      -4.97934234      -3.61001443
C       -4.64782128      -5.26456204      -4.06088562
C       -3.66407726      -4.74363755      -3.03310838
O       -3.26442293      -5.47609849      -2.13585572
N       -3.34401974      -3.41047639      -3.22127659
C       -2.50822811      -2.61132464      -2.41231167
C       -1.92422110      -3.05158168      -1.22325265
C       -1.12018724      -2.19502209      -0.46244203
C       -0.88626804      -0.88626804      -0.88626804
C       -1.45993504      -0.43713969      -2.07828334
Cl      -1.21835902       1.16437539      -2.68283737
C       -2.26880409      -1.29745203      -2.83369303
N       -7.92978086      -5.11821454      -6.87980013
C       -8.05958836      -4.66757615      -8.21038947
C       -7.25786662      -3.67277597      -8.77297852
C       -7.42388777      -3.29344690     -10.10932483
C       -8.39836040      -3.90441608     -10.89932954
Br      -8.55338516      -3.33092322     -12.70159182
C       -9.20663193      -4.90069434     -10.34635741
Cl     -10.43840991      -5.70988779     -11.24937477
C       -9.03255830      -5.28110775      -9.00858355
H       -6.94450158      -6.48966057      -4.89887762
H       -8.11802743      -5.35983815      -4.19285764
H       -6.26463303      -5.50210680      -2.66279854
H       -6.20683197      -3.91002830      -3.39905422
H       -4.42402159      -4.80978757      -5.03148703
H       -4.48555096      -6.34233205      -4.17871604
H       -3.74587249      -2.96153605      -4.03786930
H       -2.08018694      -4.05859941      -0.84747297
H       -0.68547005      -2.56654340       0.46305741
H       -2.70748155      -0.93010574      -3.75846193
H       -8.52215128      -5.89452440      -6.60836138
H       -6.47822671      -3.17510043      -8.20409042
H       -6.77950062      -2.51897304     -10.51969613
H       -9.67001165      -6.05979498      -8.59688952
O       -6.43228788       3.58047504       5.97782346
C       -7.10758125       4.60075852       5.89116331
C       -7.11488803       5.44863404       4.62853277
C       -6.07627145       4.98772306       3.60629952
C       -4.64373815       5.26654266       4.06298813
C       -3.65827711       4.74576197       3.03678410
O       -3.25309786       5.47989505       2.14338423
N       -3.34337759       3.41089131       3.22150383
C       -2.50755303       2.61164828       2.41266311
C       -1.91802121       3.05394261       1.22709162
C       -1.11431211       2.19723724       0.46610201
C       -0.88626804       0.88626804       0.88626804
C       -1.46550005       0.43505736       2.07480065
Cl      -1.23140486      -1.16930758       2.67472371
C       -2.27401323       1.29555016       2.83038577
N       -7.93573457       5.12180276       6.87025820
C       -8.07158820       4.66710448       8.19886129
C       -7.27515642       3.66768614       8.76077855
C       -7.44700136       3.28439992      10.09525823
C       -8.42207818       3.89599800      10.88402984
Br      -8.58516764       3.31693499      12.68379757
C       -9.22508735       4.89688409      10.33171223
Cl     -10.45717929       5.70719579      11.23329739
C       -9.04518151       5.28123212       8.99583598
H       -6.93909069       6.49659353       4.89735556
H       -8.11403016       5.37316289       4.18353018
H       -6.25497597       5.51431356       2.66024884
H       -6.20506919       3.91956356       3.39128173
H       -4.42477939       4.80772588       5.03279091
H       -4.47822012       6.34334981       4.18502912
H       -3.74952097       2.96055620       4.03520068
H       -2.06929794       4.06275135       0.85421002
H       -0.67519677       2.57041136      -0.45665209
H       -2.71707217       0.92656694       3.75241011
H       -8.52454674       5.90103589       6.59945444
H       -6.49527777       3.16929363       8.19284617
H       -6.80663895       2.50635551      10.50517534
H       -9.67859143       6.06347077       8.58463395
O        4.77054482      -7.06359191       4.15644967
C        4.95681027      -7.29645833       5.34623448
C        4.26806350      -6.48862313       6.43536822
C        3.50214845      -5.28820907       5.87993651
C        4.43225602      -4.20116871       5.33984421
C        3.62059734      -3.06140374       4.75882211
O        3.31353527      -2.10389496       5.45894691
N        3.27068424      -3.26900103       3.43608746
C        2.47404435      -2.43455738       2.62326268
C        1.84339294      -1.27585308       3.07980942
C        1.05202155      -0.50680212       2.21882769
C        0.88626804      -0.88626804       0.88626804
C        1.51844092      -2.04020955       0.41670760
Cl       1.37483082      -2.58101044      -1.21902027
C        2.30553778      -2.80978790       1.28462348
N        5.77485050      -8.28216103       5.87078400
C        6.65358740      -9.12537066       5.15859591
C        6.91358226      -8.99702796       3.79301090
C        7.81874450      -9.85236450       3.15555051
C        8.47358105     -10.85037831       3.87814666
Br       9.68660520     -11.96412787       2.93516713
C        8.22042689     -10.98814863       5.24510816
Cl       8.98434891     -12.19563193       6.21769163
C        7.31692080     -10.12506647       5.88026233
H        5.01618213      -6.15376727       7.16309038
H        3.56583166      -7.15528345       6.94960810
H        2.88666810      -4.86107186       6.68179841
H        2.80418731      -5.61338832       5.09833884
H        5.10995358      -4.58510407       4.57023854
H        5.06630643      -3.80077865       6.13951397
H        3.63730612      -4.10852088       2.99945085
H        1.93616840      -0.94119570       4.10889521
H        0.56835873       0.38684505       2.60744235
H        2.78930746      -3.70521221       0.90152956
H        5.72287987      -8.43003916       6.87211803
H        6.43886272      -8.22970727       3.18884757
H        8.00384798      -9.72292939       2.09139243
H        7.13464688     -10.24682516       6.94522411
