158
Properties=species:S:1:pos:R:3 pbc="F F F"
C        1.79200153       1.79200153      -1.79200153
C        1.44874571       3.12943099      -1.99303579
C        2.25284441       3.94140420      -2.79640695
C        3.39703088       3.40879062      -3.39134134
O        4.17875316       4.19931635      -4.18624434
C        3.74034412       2.06707257      -3.18840086
C        4.94751859       1.50355899      -3.83430994
N        5.16775687       0.22939789      -3.84206380
N        6.26882090      -0.21426747      -4.54903744
C        6.81068684       0.18358094      -5.76326407
S        6.15329952       1.37243310      -6.83579893
N        7.85339651      -0.54742968      -6.06968193
N        7.98420425      -1.50122405      -5.10025793
C        7.02838850      -1.33496927      -4.20068485
C        6.81106298      -2.18738180      -3.01881943
C        5.50126763      -2.55638467      -2.65474975
C        5.25280462      -3.38379019      -1.55607894
C        6.31118200      -3.88148694      -0.80617074
C        7.61800905      -3.54285116      -1.15079691
C        7.87033516      -2.69871360      -2.24393899
C        2.93137690       1.25200986      -2.38783373
H        0.55808930       3.54696344      -1.52899078
H        1.97031751       4.97972295      -2.94554696
H        3.77002555       5.07787965      -4.27142173
H        5.64001544       2.23694053      -4.28123505
H        7.11679227       1.27834535      -7.76330653
H        4.64784426      -2.20849643      -3.23412587
H        4.23018259      -3.64478294      -1.29387938
H        6.12325469      -4.53197660       0.04356340
H        8.43909690      -3.93983283      -0.55977063
H        3.19147743       0.21037528      -2.22688053
C        9.25404772      -2.37710754      -2.47954264
C       10.41290700      -2.10776246      -2.67686070
Br      12.28668442      -1.67225424      -2.99590731
C       -1.79200153      -1.79200153      -1.79200153
C       -2.32544427      -2.97242197      -1.27334625
C       -3.13473868      -3.78159742      -2.07431947
C       -3.40631820      -3.40171649      -3.38912816
O       -4.18920343      -4.19791866      -4.17719175
C       -2.87085050      -2.21706354      -3.90790351
C       -3.15033729      -1.82662497      -5.30842525
N       -2.50092624      -0.86286755      -5.87542477
N       -2.76096476      -0.63030643      -7.21231967
C       -2.98901679      -1.49396217      -8.27455289
S       -2.91888562      -3.22253842      -8.22010751
N       -3.16023535      -0.82681125      -9.38860215
N       -2.97392358       0.49687644      -9.10619099
C       -2.70537787       0.62867961      -7.81740581
C       -2.40869525       1.89919723      -7.13300259
C       -1.37683486       1.95277745      -6.17557531
C       -1.04638225       3.14304129      -5.52175242
C       -1.72607319       4.31599143      -5.82578404
C       -2.74319692       4.29500151      -6.77775939
C       -3.08872685       3.09773865      -7.42457234
C       -2.05525974      -1.40909705      -3.10686370
H       -2.11619976      -3.26960257      -0.24824118
H       -3.53990829      -4.69898376      -1.65669537
H       -4.42640020      -5.00467749      -3.68824923
H       -3.95007992      -2.39335754      -5.81475356
H       -3.22895670      -3.42008914      -9.50939831
H       -0.80355384       1.06044594      -5.93036580
H       -0.25049208       3.15195192      -4.78073887
H       -1.46683159       5.24539291      -5.32627600
H       -3.26673231       5.21843254      -7.01073492
H       -1.63616369      -0.48939304      -3.50317651
C       -4.18536682       3.18283239      -8.35394840
C       -5.10380279       3.25409839      -9.13230084
Br      -6.58883607       3.36932949     -10.39083091
C       -1.79200153       1.79200153       1.79200153
C       -2.84145803       1.21874404       2.51101042
C       -3.64966242       2.01983260       3.32116055
C       -3.39976433       3.38982166       3.40757685
O       -4.19640703       4.17642950       4.19147732
C       -2.34635332       3.96340339       2.68606083
C       -2.09521941       5.42007299       2.77009511
N       -1.27751611       6.00488041       1.95682204
N       -1.17690334       7.37993778       2.04674975
C       -2.13019248       8.36542974       2.26190963
S       -3.83835729       8.12281324       2.40036102
N       -1.58360197       9.55543426       2.23661252
N       -0.26274876       9.39307507       1.92741430
C       -0.01001519       8.10261672       1.78147217
C        1.29377335       7.52478082       1.41149314
C        1.35075274       6.46419611       0.48618934
C        2.56817677       5.90422847       0.08904169
C        3.76211995       6.40651945       0.59146630
C        3.73642493       7.46340324       1.49897649
C        2.51448340       8.01747834       1.91256560
C       -1.53999317       3.16138684       1.86984048
H       -3.03702289       0.15080391       2.44621672
H       -4.46455109       1.55885391       3.87218242
H       -4.91125536       3.63694408       4.57112748
H       -2.63054117       5.95438110       3.57326875
H       -4.15174472       9.41175312       2.59494631
H        0.43820356       6.06176287       0.04991438
H        2.58040638       5.08029155      -0.62060615
H        4.71131438       5.98001905       0.27901002
H        4.67592009       7.85118995       1.88376484
H       -0.72178017       3.59993238       1.30702070
C        2.60451134       9.07242214       2.88857203
C        2.67990975       9.95593758       3.70597740
Br       2.80182259      11.38450731       5.02765277
C        1.79200153      -1.79200153       1.79200153
C        3.17687643      -1.62269783       1.77163824
C        3.98822731      -2.42451484       2.57791340
C        3.40667509      -3.38927459       3.40121316
O        4.20011119      -4.18166732       4.18253534
C        2.01724560      -3.55766042       3.42091153
C        1.40688241      -4.59306735       4.28543775
N        0.16049107      -4.91511956       4.16360793
N       -0.29942289      -5.95661038       4.94640338
C        0.27963785      -7.16286617       5.31502782
S        1.81231637      -7.76607050       4.78314469
N       -0.54315714      -7.86906120       6.04974469
N       -1.72057367      -7.17998932       6.12382247
C       -1.60178935      -6.05012972       5.44576370
C       -2.66768121      -5.05011185       5.26006997
C       -2.84493476      -4.44333876       4.00122872
C       -3.85945804      -3.50883447       3.77571695
C       -4.73719811      -3.17383573       4.79922818
C       -4.59304408      -3.76762243       6.05137646
C       -3.56491959      -4.69451111       6.28596902
C        1.20468410      -2.75786355       2.60867284
H        3.63210010      -0.87023106       1.13171235
H        5.06484109      -2.28239136       2.54835497
H        5.13486050      -3.97893795       4.00552847
H        2.07472529      -5.04527581       5.03818992
H        1.76735790      -8.90968893       5.48139732
H       -2.19417062      -4.70036788       3.16727643
H       -3.96655806      -3.05043877       2.79539831
H       -5.53268365      -2.45430116       4.62609718
H       -5.28664588      -3.50119375       6.84448683
H        0.12643405      -2.88371853       2.61858067
C       -3.48051533      -5.20855620       7.62844195
C       -3.40982675      -5.63906895       8.75276303
Br      -3.29552931      -6.33517167      10.57069513
C       -0.00445707       0.01189536      -1.78238275
H       -0.66409135       0.67374010      -2.43557963
H        0.65740317      -0.63156657      -2.45157240
C       -0.90989263      -0.90692880      -0.91072765
C        0.90977584       0.90977584      -0.90977584
C       -0.00465871       1.77757030       0.00794375
H       -0.66225468       2.44313916      -0.64384735
H        0.64322798       2.43503045       0.67728295
C       -1.78241447       0.00034974      -0.00472694
H       -2.45427497      -0.65498947       0.64260836
H       -2.43311707       0.67328779      -0.65473579
C       -0.91132561       0.90220522       0.91563759
C       -0.01476271      -0.02253852       1.78660255
H       -0.67934791      -0.69751639       2.42135241
H        0.63392994       0.61504881       2.47327442
C        0.01484550      -1.77751727      -0.01636693
H        0.67870853      -2.42144646      -0.68295456
H       -0.62264859      -2.45592969       0.64226336
C        1.78714474       0.01002794       0.00389507
H        2.44202412       0.67113390       0.66197326
H        2.45385902      -0.65136977      -0.64189061
C        0.91606151      -0.90478549       0.90901405
