150
Properties=species:S:1:pos:R:3 pbc="F F F"
C        1.79200153       1.79200153      -1.79200153
C        1.44874571       3.12943099      -1.99303579
C        2.25284441       3.94140420      -2.79640695
C        3.39703088       3.40879062      -3.39134134
O        4.17875316       4.19931635      -4.18624434
C        3.74034412       2.06707257      -3.18840086
C        4.94751859       1.50355899      -3.83430994
N        5.16775687       0.22939789      -3.84206380
N        6.26882090      -0.21426747      -4.54903744
C        6.81068684       0.18358094      -5.76326407
S        6.15329952       1.37243310      -6.83579893
N        7.85339651      -0.54742968      -6.06968193
N        7.98420425      -1.50122405      -5.10025793
C        7.02838850      -1.33496927      -4.20068485
C        6.81106298      -2.18738180      -3.01881943
C        5.50126763      -2.55638467      -2.65474975
C        5.25280462      -3.38379019      -1.55607894
C        6.31118200      -3.88148694      -0.80617074
C        7.61800905      -3.54285116      -1.15079691
C        7.87033516      -2.69871360      -2.24393899
Br       9.70096264      -2.27323441      -2.55563849
C        2.93137690       1.25200986      -2.38783373
H        0.55808930       3.54696344      -1.52899078
H        1.97031751       4.97972295      -2.94554696
H        3.77002555       5.07787965      -4.27142173
H        5.64001544       2.23694053      -4.28123505
H        7.11679227       1.27834535      -7.76330653
H        4.64784426      -2.20849643      -3.23412587
H        4.23018259      -3.64478294      -1.29387938
H        6.12325469      -4.53197660       0.04356340
H        8.43909690      -3.93983283      -0.55977063
H        3.19147743       0.21037528      -2.22688053
C       -1.79200153      -1.79200153      -1.79200153
C       -2.30616773      -2.98419165      -1.28085311
C       -3.11536866      -3.79346086      -2.08182604
C       -3.40617417      -3.40191074      -3.38907793
O       -4.18896839      -4.19805286      -4.17729260
C       -2.89003233      -2.20546422      -3.90032099
C       -3.18983967      -1.80248229      -5.29306556
N       -2.55783001      -0.82506137      -5.85632718
N       -2.83568798      -0.58043183      -7.18747106
C       -3.06608424      -1.43460823      -8.25683938
S       -2.97586788      -3.16277685      -8.22288682
N       -3.25749051      -0.75694319      -9.36121505
N       -3.08289723       0.56551585      -9.06585675
C       -2.80118620       0.68584274      -7.77876061
C       -2.51105685       1.95186735      -7.08331110
C       -1.46902344       2.00641172      -6.13702098
C       -1.14457277       3.19292214      -5.47344275
C       -1.84085489       4.36140233      -5.75641324
C       -2.86845856       4.33955058      -6.69704681
C       -3.20782591       3.14579126      -7.35352590
Br      -4.67375310       3.25567509      -8.56528871
C       -2.07452147      -1.39733283      -3.09936619
H       -2.08192185      -3.29049857      -0.26162309
H       -3.50539266      -4.72005089      -1.67014387
H       -4.41147480      -5.01291912      -3.69493300
H       -3.98886413      -2.37255032      -5.79677657
H       -3.29836402      -3.34931031      -9.51076982
H       -0.88296922       1.11796435      -5.90846884
H       -0.34044190       3.20255203      -4.74138915
H       -1.58642554       5.28801097      -5.24930011
H       -3.40498451       5.25952244      -6.91357263
H       -1.67035611      -0.46850684      -3.48987029
C       -1.79200153       1.79200153       1.79200153
C       -2.95125140       1.26114080       2.35882029
C       -3.76026144       2.06211957       3.16827456
C       -3.40137647       3.38922454       3.40656183
O       -4.19767644       4.17702650       4.18961091
C       -2.23793759       3.92024754       2.83763241
C       -1.87004922       5.33339538       3.08194291
N       -0.93060053       5.90605165       2.40256637
N       -0.71964241       7.25213265       2.63181581
C       -1.59963831       8.30165067       2.85624287
S       -3.32782892       8.21213168       2.82157096
N       -0.95155954       9.43167912       2.99241010
N        0.37359789       9.17147946       2.78535656
C        0.52574029       7.88042400       2.53942036
C        1.80358959       7.21515699       2.23093321
C        1.85606919       6.23862833       1.21707357
C        3.05242941       5.60169369       0.87582910
C        4.23213061       5.94199001       1.52600639
C        4.21204978       6.91341122       2.52459337
C        3.00912659       7.54350198       2.88118515
Br       3.12549784       8.80361627       4.30524828
C       -1.43025748       3.11905345       2.02190956
H       -3.23201323       0.22647889       2.17555140
H       -4.66108891       1.63482840       3.59967012
H       -4.98977601       3.67726141       4.45228950
H       -2.43103797       5.84438024       3.88277281
H       -3.54489384       9.50323642       3.11031388
H        0.95778275       5.96471807       0.66653837
H        3.06055408       4.84531594       0.09451716
H        5.16604960       5.45564056       1.25812372
H        5.14069709       7.17470943       3.02502236
H       -0.52696101       3.52480987       1.57696237
C        1.79200153      -1.79200153       1.79200153
C        3.00302802      -1.29406845       2.27411601
C        3.81245028      -2.09504559       3.08315970
C        3.40223031      -3.38900314       3.40592939
O        4.19826688      -4.17746894       4.18857803
C        2.18690972      -3.88698688       2.92192095
C        1.76384206      -5.26602275       3.25552270
N        0.76430545      -5.82231455       2.65259856
N        0.50026427      -7.14318178       2.96014481
C        1.33861183      -8.22407937       3.19484064
S        3.06509213      -8.22457888       3.07186055
N        0.64426797      -9.31165757       3.41972322
N       -0.67553929      -8.99458127       3.26419614
C       -0.77721831      -7.71089929       2.96042310
C       -2.03535778      -6.99709231       2.68076608
C       -2.09203182      -6.06948867       1.62217586
C       -3.27192875      -5.38968764       1.30733449
C       -4.43206151      -5.63745284       2.03047446
C       -4.40823686      -6.55905062       3.07514104
C       -3.22067874      -7.23161491       3.40462438
Br      -3.32527796      -8.41359405       4.89505063
C        1.37850491      -3.08616684       2.10654874
H        3.32393812      -0.28517685       2.02492854
H        4.75376643      -1.69381820       3.44800279
H        5.02603790      -3.70658765       4.38670136
H        2.33948507      -5.76549754       4.05320841
H        3.23371290      -9.50954377       3.41518748
H       -1.21075588      -5.86876316       1.01546642
H       -3.28317993      -4.67267032       0.48978864
H       -5.35373191      -5.11768607       1.78376052
H       -5.32174137      -6.74807787       3.63269819
H        0.43507952      -3.46644435       1.72720939
C       -0.00445707       0.01189536      -1.78238275
H       -0.66409135       0.67374010      -2.43557963
H        0.65740317      -0.63156657      -2.45157240
C       -0.90989263      -0.90692880      -0.91072765
C        0.90977584       0.90977584      -0.90977584
C       -0.00465871       1.77757030       0.00794375
H       -0.66225468       2.44313916      -0.64384735
H        0.64322798       2.43503045       0.67728295
C       -1.78241447       0.00034974      -0.00472694
H       -2.45427497      -0.65498947       0.64260836
H       -2.43311707       0.67328779      -0.65473579
C       -0.91132561       0.90220522       0.91563759
C       -0.01476271      -0.02253852       1.78660255
H       -0.67934791      -0.69751639       2.42135241
H        0.63392994       0.61504881       2.47327442
C        0.01484550      -1.77751727      -0.01636693
H        0.67870853      -2.42144646      -0.68295456
H       -0.62264859      -2.45592969       0.64226336
C        1.78714474       0.01002794       0.00389507
H        2.44202412       0.67113390       0.66197326
H        2.45385902      -0.65136977      -0.64189061
C        0.91606151      -0.90478549       0.90901405
