137
Properties=species:S:1:pos:R:3 pbc="F F F"
C        0.00000000       0.00000000       0.00000000
C        0.88209751       0.88209751      -0.88209751
C        0.53884169       2.21952696      -1.08313177
C        1.34294038       3.03150018      -1.88650293
C        2.48712685       2.49888659      -2.48143732
O        3.26884913       3.28941233      -3.27634032
C        2.83044009       1.15716855      -2.27849683
C        4.03761456       0.59365496      -2.92440591
N        4.25785284      -0.68050613      -2.93215977
N        5.35891688      -1.12417149      -3.63913341
C        5.90078281      -0.72632308      -4.85336005
S        5.24339550       0.46252907      -5.92589491
N        6.94349248      -1.45733371      -5.15977791
N        7.07430022      -2.41112807      -4.19035391
C        6.11848447      -2.24487330      -3.29078082
C        5.90115896      -3.09728583      -2.10891541
C        4.59136361      -3.46628870      -1.74484573
C        4.34290060      -4.29369421      -0.64617492
C        5.40127797      -4.79139097       0.10373328
C        6.70810503      -4.45275518      -0.24089288
C        6.96043114      -3.60861763      -1.33403496
C        2.02147288       0.34210584      -1.47792971
H       -0.35181472       2.63705941      -0.61908675
H        1.06041349       4.06981893      -2.03564294
H        2.86012152       4.16797562      -3.36151770
H        4.73011142       1.32703650      -3.37133103
H        6.20688824       0.36844133      -6.85340251
H        3.73794024      -3.11840046      -2.32422184
H        3.32027857      -4.55468697      -0.38397535
H        5.21335067      -5.44188062       0.95346743
H        7.52919287      -4.84973685       0.35013340
H        2.28157341      -0.69952874      -1.31697651
C        8.34414370      -3.28701156      -1.56963861
C        9.50300297      -3.01766648      -1.76695667
Br      11.37678040      -2.58215827      -2.08600328
C       -0.88209751      -0.88209751      -0.88209751
C       -0.84822413      -2.26815907      -0.72511721
C       -1.65441616      -3.07954830      -1.52697904
C       -2.49115709      -2.49687434      -2.47941933
O       -3.27247106      -3.29021337      -3.27191735
C       -2.52439711      -1.10626067      -2.63544769
C       -3.40323059      -0.49452556      -3.65791929
N       -3.29505719       0.75563552      -3.97008481
N       -4.09091271       1.21770179      -5.00066787
C       -4.46504837       0.64593227      -6.20870367
S       -3.92517872      -0.87673038      -6.82991038
N       -5.21304304       1.46836100      -6.90125465
N       -5.29130423       2.63905399      -6.20127581
C       -4.60236604       2.51640622      -5.07843218
C       -4.41718248       3.57515832      -4.07076438
C       -3.15466028       3.75815769      -3.47341805
C       -2.92978956       4.76646300      -2.53205475
C       -3.95791135       5.63225911      -2.18050148
C       -5.21391480       5.48230259      -2.76463052
C       -5.44768076       4.46025139      -3.69841910
C       -1.71227024      -0.29359113      -1.83564705
H       -0.19780035      -2.72427687       0.01774578
H       -1.61426387      -4.15705557      -1.39455591
H       -3.08558271      -4.22510148      -3.07893065
H       -4.15408701      -1.16498526      -4.10940668
H       -4.63378857      -0.82796027      -7.96698323
H       -2.31737126       3.11698221      -3.74337257
H       -1.94645948       4.87816262      -2.08127009
H       -3.78539844       6.42295152      -1.45555570
H       -6.01065473       6.16658867      -2.48525657
H       -1.73264508       0.78558316      -1.95195925
C       -6.79382227       4.36855611      -4.20150459
C       -7.92121579       4.29176132      -4.62283869
Br      -9.74411575       4.16759063      -5.30410029
C       -0.88209751       0.88209751       0.88209751
C       -2.27068916       0.79138262       0.77942863
C       -3.08225998       1.59349502       1.58518849
C       -2.49738389       2.47970941       2.49035747
O       -3.29020125       3.27274331       3.27165721
C       -1.10426239       2.56929084       2.59255224
C       -0.48923136       3.52217089       3.54427319
N        0.77723778       3.78037730       3.50636696
N        1.24712749       4.75199573       4.36901055
C        0.71280814       5.96749367       4.77313425
S       -0.75401243       6.68218187       4.19562518
N        1.52952449       6.58715272       5.58830845
N        2.66306421       5.83072224       5.68586803
C        2.52282208       4.74650590       4.94070818
C        3.54323240       3.69992914       4.75609180
C        3.75801221       3.15139180       3.47654105
C        4.73287032       2.17509040       3.25316123
C        5.53346328       1.73834661       4.30127039
C        5.35137389       2.27244746       5.57516916
C        4.36204835       3.24143372       5.80646310
C       -0.29104645       1.76943946       1.78102251
H       -2.72862331       0.10015239       0.07555574
H       -4.16155311       1.51322116       1.49110108
H       -4.22303899       3.13191896       3.03465690
H       -1.17315517       3.97054023       4.28478355
H       -0.68777754       7.78315865       4.95779589
H        3.16907899       3.48778676       2.62505385
H        4.87002884       1.76372456       2.25587123
H        6.29833786       0.98580571       4.13053476
H        5.98479516       1.92644957       6.38766821
H        0.79011404       1.83443674       1.85469848
C        4.23030937       3.68794637       7.16913375
C        4.11997797       4.06190072       8.31037041
Br       3.94158144       4.66655327      10.15565358
C        0.88209751      -0.88209751       0.88209751
C        2.26987585      -0.75055280       0.82107176
C        3.08133953      -1.55250895       1.62709501
C        2.49707880      -2.47952528       2.49084669
O        3.29021752      -3.27223486       3.27214939
C        1.10475518      -2.61004806       2.55130224
C        0.49096472      -3.60581426       3.45889645
N       -0.76622335      -3.89742210       3.37830773
N       -1.23201868      -4.90543224       4.20046523
C       -0.67496422      -6.11674074       4.58604326
S        0.82664807      -6.77447278       4.03069863
N       -1.49592501      -6.78122063       5.36064107
N       -2.65255045      -6.05914772       5.44692878
C       -2.52253343      -4.95095649       4.73596894
C       -3.56655855      -3.92792266       4.55142443
C       -3.76158550      -3.34967550       3.28183063
C       -4.75705460      -2.39452498       3.05791093
C       -5.59801224      -2.00953093       4.09463503
C       -5.43590211      -2.57408850       5.35805634
C       -4.42639924      -3.52175624       5.59049147
C        0.29186922      -1.81023384       1.73940537
H        2.72727007      -0.02751042       0.14955094
H        4.16011677      -1.44010524       1.56565335
H        4.22486012      -3.09931412       3.06544060
H        1.16671008      -4.05595780       4.20581107
H        0.77058730      -7.89786447       4.76028031
H       -3.14033082      -3.64572567       2.43836677
H       -4.87838590      -1.95916284       2.06879002
H       -6.37880320      -1.27370210       3.92310371
H       -6.10081357      -2.26856330       6.16157290
H       -0.78864516      -1.90684939       1.78081695
C       -4.31949576      -4.00266980       6.94359671
C       -4.22996410      -4.40543492       8.07682235
Br      -4.08519898      -5.05667204       9.90915236
