105
Properties=species:S:1:pos:R:3 pbc="F F F"
C        0.00000000       0.00000000       0.00000000
S        4.40053664       1.53974919      -5.31539809
C        4.15185469       2.97252011      -4.49069369
N        3.34236639       3.23106063      -3.40773737
C        2.56299221       2.39121801      -2.58163961
C        2.74206771       1.01562609      -2.44389338
C        1.90825922       0.26545575      -1.60512997
C        0.88617800       0.88617800      -0.88617800
C        0.71372776       2.26761843      -0.99221757
Cl      -0.51981432       3.12245204      -0.13653989
C        1.55903458       3.01278182      -1.82536604
N        4.81945438       4.07565219      -4.99627756
C        4.80073389       5.40226176      -4.58158788
O        4.13545716       5.78597645      -3.62113612
C        5.61946571       6.27362837      -5.39574779
C        5.90768164       7.62099713      -5.28835403
C        6.74737892       7.94515273      -6.38318876
C        6.92097624       6.77874224      -7.09176031
Br       7.92936975       6.60720175      -8.65183727
O        6.24744671       5.75741804      -6.49806537
H        3.22519989       4.22904575      -3.22251612
H        3.54435450       0.48660638      -2.94327635
H        2.07412833      -0.80605137      -1.52080762
H        1.40666890       4.08833502      -1.90113917
H        5.39383084       3.87833922      -5.80849584
H        5.54728854       8.28322352      -4.51242704
H        7.16782891       8.91157915      -6.62509122
S       -3.24624744      -5.92505002      -2.08438645
C       -3.64906283      -4.75624935      -3.20975631
N       -3.31840269      -3.42039409      -3.24236761
C       -2.46815822      -2.63172734      -2.43596427
C       -1.44732380      -3.12772819      -1.62653520
C       -0.66259226      -2.26304419      -0.85320849
C       -0.88617800      -0.88617800      -0.88617800
C       -1.88618409      -0.37297044      -1.71440923
Cl      -2.23090404       1.31628561      -1.82455917
C       -2.66000246      -1.24387641      -2.49330357
N       -4.47640027      -5.17746577      -4.23751808
C       -5.02460241      -4.46334899      -5.29663213
O       -4.81091945      -3.26438247      -5.46726782
C       -5.87319648      -5.26173679      -6.15390861
C       -6.54873914      -4.94977169      -7.31852198
C       -7.24392512      -6.12093182      -7.71086347
C       -6.95173081      -7.07551691      -6.76423107
Br      -7.60668594      -8.82226667      -6.75945617
O       -6.11579029      -6.56760132      -5.81953852
H       -3.85418134      -2.89031188      -3.93226853
H       -1.19986325      -4.18154803      -1.59282595
H        0.12517356      -2.68239577      -0.23166237
H       -3.43981479      -0.82730834      -3.12901996
H       -4.73312175      -6.15745741      -4.19008673
H       -6.53869717      -3.98880247      -7.81543946
H       -7.88189209      -6.24795003      -8.57465716
S       -1.89906598       5.82054491       3.53607302
C       -3.11142397       4.70079820       3.80284632
N       -3.25220893       3.42594376       3.30301171
C       -2.40405784       2.61373481       2.51805718
C       -1.02777446       2.79007765       2.38373508
C       -0.27234526       1.93548633       1.57101335
C       -0.88617800       0.88617800       0.88617800
C       -2.25911974       0.68014121       1.03430280
Cl      -3.10339412      -0.59513060       0.23091408
C       -3.00622458       1.53312059       1.85783728
N       -4.15437964       5.13058271       4.60642178
C       -5.32026222       4.47667437       4.98764695
O       -5.58192116       3.32903728       4.63161131
C       -6.18796939       5.28094420       5.81992829
C       -7.38861005       4.98929544       6.43912732
C       -7.79924950       6.17077408       7.10569683
C       -6.82677095       7.11078412       6.85392372
Br      -6.84540303       8.87073344       7.47227231
O       -5.84157375       6.58002733       6.08132904
H       -4.17959824       3.02978497       3.46737853
H       -0.49055527       3.55996037       2.92372159
H        0.79923788       2.10105501       1.48706745
H       -4.07700467       1.36189173       1.95724668
H       -4.05183930       6.07949753       4.94932907
H       -7.90108788       4.03710095       6.40475026
H       -8.69615054       6.31646204       7.69188669
S        5.31606748      -1.53996348       4.39965296
C        4.51789528      -2.98122806       4.11594515
N        3.38683275      -3.22436851       3.36996313
C        2.60718571      -2.39939599       2.52926813
C        3.04198809      -1.20709203       1.95250707
C        2.18788674      -0.45201160       1.13894660
C        0.88617800      -0.88617800       0.88617800
C        0.44678858      -2.09301218       1.43376300
Cl      -1.14444601      -2.71237457       1.17124904
C        1.31101865      -2.84812562       2.23803818
N        5.03935872      -4.08944361       4.76258180
C        4.60027261      -5.40824323       4.77606769
O        3.61125719      -5.78281395       4.14849860
C        5.40580197      -6.27684698       5.60619293
C        5.33815696      -7.63694037       5.84193549
C        6.36965803      -7.94082119       6.76524120
C        7.00371690      -6.75055721       7.03720468
Br       8.44151461      -6.53987191       8.20702226
O        6.43216699      -5.73632223       6.33444091
H        2.99850924      -4.15733522       3.52091729
H        4.05387384      -0.84213802       2.07822538
H        2.55787689       0.47405807       0.70506576
H        0.95010902      -3.78388511       2.66214896
H        5.85804145      -3.89420008       5.32842437
H        4.62420514      -8.31900664       5.39972732
H        6.61420776      -8.90809507       7.18219644
