86
Properties=species:S:1:pos:R:3 pbc="F F F"
C        1.45707822       3.85046590      -4.96522285
C        2.04738765       3.20629881      -3.74571763
C        1.24860540       2.39463280      -2.92832671
C        1.79227720       1.79227720      -1.79227720
C        3.12861047       1.98620361      -1.45430694
C        3.92309139       2.79324950      -2.26698617
C        3.39201322       3.40157208      -3.40596730
H        2.19812214       4.45396274      -5.49973796
H        0.63008653       4.50900213      -4.68083796
H        1.08749027       3.08457011      -5.65462587
H        0.20287807       2.23514638      -3.18168446
H        3.54733974       1.51570754      -0.56964519
H        4.02540728       4.02854087      -4.02999685
C        5.30702988       3.00161546      -1.92802027
C        6.46607837       3.17612196      -1.64413633
Br       8.34016174       3.45828420      -1.18512001
C       -5.46755636      -2.68844218      -2.11676843
C       -3.98904401      -2.64342371      -2.36693637
C       -3.16888067      -1.83817101      -1.56451323
C       -1.79227720      -1.79227720      -1.79227720
C       -1.21448541      -2.54097112      -2.81366449
C       -2.02985605      -3.34179108      -3.61167992
C       -3.40798766      -3.39689849      -3.39466646
H       -5.97442029      -3.35590315      -2.82149939
H       -5.89983276      -1.68916068      -2.23093318
H       -5.66765553      -3.05442925      -1.10460148
H       -3.60823028      -1.24843864      -0.76303999
H       -0.14318844      -2.50220924      -2.98729480
H       -4.03065541      -4.02701744      -4.02627214
C       -1.44410465      -4.12103397      -4.67152700
C       -0.95353785      -4.77364988      -5.55914893
Br      -0.16033282      -5.82887462      -6.99435851
C       -2.29729430       2.48424719       5.49122549
C       -2.45407392       2.54486137       4.00046880
C       -1.65088914       1.74047018       3.18020559
C       -1.79227720       1.79227720       1.79227720
C       -2.72764615       2.63826750       1.20320736
C       -3.52644253       3.43820413       2.01868040
C       -3.39534407       3.39613203       3.40807650
H       -2.98790549       3.16767921       5.99623814
H       -1.27835969       2.76662807       5.77493887
H       -2.50423467       1.47128724       5.85116435
H       -0.91631098       1.07507197       3.62832596
H       -2.83420846       2.67536705       0.12311697
H       -4.02650580       4.02675314       4.03068605
C       -4.49777900       4.31756243       1.42132418
C       -5.31127329       5.05402501       0.92103836
Br      -6.62662476       6.24482271       0.11211849
C        5.22494818      -3.40773115       1.64008764
C        3.87164456      -2.99164039       2.13611914
C        3.05273018      -2.18257131       1.33626342
C        1.79227720      -1.79227720       1.79227720
C        1.33024597      -2.19768126       3.04119379
C        2.14438821      -3.00223326       3.83670559
C        3.40703049      -3.39975975       3.39276237
H        5.74677086      -4.03286385       2.37218814
H        5.84449345      -2.52540384       1.45002934
H        5.12632353      -3.98512843       0.71523429
H        3.40223187      -1.85919535       0.35828169
H        0.34908528      -1.89167988       3.39192732
H        4.03033850      -4.02795847       4.02564802
C        1.67775672      -3.42822141       5.13068748
C        1.28695285      -3.78498649       6.21439732
Br       0.65505604      -4.36184544       7.96666447
C       -0.00445707       0.01189536      -1.78238275
H       -0.66409135       0.67374010      -2.43557963
H        0.65740317      -0.63156657      -2.45157240
C       -0.90989263      -0.90692880      -0.91072765
C        0.90977584       0.90977584      -0.90977584
C       -0.00465871       1.77757030       0.00794375
H       -0.66225468       2.44313916      -0.64384735
H        0.64322798       2.43503045       0.67728295
C       -1.78241447       0.00034974      -0.00472694
H       -2.45427497      -0.65498947       0.64260836
H       -2.43311707       0.67328779      -0.65473579
C       -0.91132561       0.90220522       0.91563759
C       -0.01476271      -0.02253852       1.78660255
H       -0.67934791      -0.69751639       2.42135241
H        0.63392994       0.61504881       2.47327442
C        0.01484550      -1.77751727      -0.01636693
H        0.67870853      -2.42144646      -0.68295456
H       -0.62264859      -2.45592969       0.64226336
C        1.78714474       0.01002794       0.00389507
H        2.44202412       0.67113390       0.66197326
H        2.45385902      -0.65136977      -0.64189061
C        0.91606151      -0.90478549       0.90901405
