65
Properties=species:S:1:pos:R:3 pbc="F F F"
C        0.00000000       0.00000000       0.00000000
C        0.54717420       2.94056188      -4.05531882
C        1.13748363       2.29639478      -2.83581360
C        0.33870138       1.48472877      -2.01842269
C        0.88237318       0.88237318      -0.88237318
C        2.21870644       1.07629959      -0.54440292
C        3.01318737       1.88334547      -1.35708214
C        2.48210920       2.49166805      -2.49606328
H        1.28821812       3.54405871      -4.58983393
H       -0.27981749       3.59909811      -3.77093394
H        0.17758624       2.17466609      -4.74472185
H       -0.70702595       1.32524236      -2.27178043
H        2.63743572       0.60580352       0.34025883
H        3.11550325       3.11863684      -3.12009282
C        4.39712586       2.09171144      -1.01811625
C        5.55617434       2.26621793      -0.73423231
Br       7.43025771       2.54838018      -0.27521599
C       -4.07081530      -2.91767670      -0.55456291
C       -2.84352951      -2.28499994      -1.14116256
C       -2.02589327      -1.47369622      -0.34226335
C       -0.88237318      -0.88237318      -0.88237318
C       -0.53689069      -1.08739365      -2.21512462
C       -1.34977977      -1.89412962      -3.00970560
C       -2.49615859      -2.49152729      -2.48215464
H       -4.60732520      -3.51822762      -1.29655794
H       -4.75537833      -2.14527152      -0.18956469
H       -3.79535543      -3.57668955       0.27507080
H       -2.28495167      -1.30579108       0.70074592
H        0.35353125      -0.62540422      -2.63110744
H       -3.12011519      -3.11860381      -3.11551391
C       -1.00307972      -2.11391737      -4.38995645
C       -0.71271843      -2.29798960      -5.54591655
Br      -0.24322879      -2.59561884      -7.41500625
C       -0.62458364       2.72807644       4.19039482
C       -1.17494401       2.19352744       2.90122056
C       -0.37576209       1.38298922       2.08310152
C       -0.88237318       0.88237318       0.88237318
C       -2.18176967       1.17771126       0.47992801
C       -2.97664347       1.98365435       1.29331716
C       -2.48241484       2.49082273       2.49660296
H       -1.36087543       3.34407048       4.71716486
H        0.25525157       3.34973296       3.99573316
H       -0.34337997       1.90206531       4.85152890
H        0.64129757       1.14481845       2.38647596
H       -2.57173898       0.78616053      -0.45491910
H       -3.11560438       3.11835885       3.12026969
C       -4.32257327       2.29637574       0.88800454
C       -5.44978947       2.55827989       0.54855522
Br      -7.27240274       2.98175676      -0.00030562
C        4.35107206      -2.42234160       0.76964124
C        2.97917746      -2.04519193       1.24532262
C        2.16007545      -1.23652410       0.44525329
C        0.88237318      -0.88237318       0.88237318
C        0.40314969      -1.32380419       2.11245507
C        1.21747605      -2.12796395       2.90817497
C        2.49726905      -2.48955530       2.48301618
H        4.87071158      -3.05190352       1.49949567
H        4.95552551      -1.52345091       0.61123814
H        4.28405122      -2.98185543      -0.16893248
H        2.52291929      -0.88519562      -0.51811807
H       -0.59139649      -1.04584817       2.44852873
H        3.12048157      -3.11795568       3.11579567
C        0.73315334      -2.59102485       4.18277535
C        0.32753307      -2.97883835       5.25025317
Br      -0.32832060      -3.60589997       6.97627451
