169
Properties=species:S:1:pos:R:3 pbc="F F F"
C        0.00000000       0.00000000       0.00000000
C        0.88142068       0.88142068      -0.88142068
C        2.24378143       0.61475850      -0.97722740
C        3.05000189       1.41066819      -1.79580673
C        2.49743905       2.49099010      -2.48676191
C        1.12558118       2.73491572      -2.40854130
C        0.31551203       1.93454390      -1.59837121
O        3.21037451       3.29053986      -3.34172628
C        4.44366663       3.78063934      -2.80875771
C        5.45141435       4.10663687      -3.91527601
O        5.13181471       4.11996232      -5.10864363
N        6.75082148       4.37953784      -3.59438940
C        7.37429797       4.38485097      -2.36043351
N        6.75322651       4.20130215      -1.19524484
O        7.73765444       4.20538485      -0.22764205
N        8.98739997       4.39286723      -0.78803970
C        8.77188116       4.54428000      -2.09610298
N        9.86398825       4.78569059      -2.90640775
C        9.82272585       5.17385534      -4.22389658
O        8.79335146       5.34421399      -4.87311508
C       11.20895366       5.38840236      -4.83180969
O       11.75378807       4.16735011      -5.31243703
C       11.30109537       3.73264998      -6.52799647
C       11.22334133       2.34504304      -6.67628374
C       10.81626047       1.78219771      -7.88905401
C       10.50007069       2.61397043      -8.96081612
Br       9.97388995       1.86166925     -10.61290187
C       10.58617347       3.99721680      -8.82721137
C       10.99133864       4.55706741      -7.61077137
H        2.68961413      -0.21578409      -0.43741319
H        4.09888529       1.15059563      -1.89801487
H        0.68595493       3.54904205      -2.97896063
H       -0.75111580       2.13519499      -1.54211316
H        4.90232382       3.05421047      -2.14027161
H        4.23040158       4.71025718      -2.26597130
H        7.34667720       4.58701484      -4.40145937
H       10.74945675       4.73871671      -2.41980048
H       11.88088244       5.75086250      -4.04619196
H       11.17568363       6.19337147      -5.57146368
H       11.47768754       1.69386001      -5.84384278
H       10.75388027       0.70251057      -7.98755967
H       10.35150763       4.65024493      -9.66399424
H       11.07734046       5.63669249      -7.55872132
C       -0.88142068      -0.88142068      -0.88142068
C       -0.31080867      -1.93304853      -1.59191013
C       -1.11822771      -2.75103518      -2.38721392
C       -2.48605322      -2.49239201      -2.49674583
C       -3.05610030      -1.45393345      -1.75900444
C       -2.25250056      -0.64056434      -0.95536222
O       -3.35100365      -3.27218764      -3.21944936
C       -2.91892090      -3.56271773      -4.55142504
C       -3.53228950      -4.86424960      -5.07678814
O       -4.43455392      -5.45342686      -4.47243987
N       -3.07160312      -5.41369836      -6.23944724
C       -2.05386602      -4.99129380      -7.07442262
N       -1.36895575      -3.85767230      -6.92314544
O       -0.40569385      -3.85316798      -7.91181950
N       -0.48500278      -4.99232601      -8.69097811
C       -1.52126645      -5.68140480      -8.20959289
N       -1.85421995      -6.86709771      -8.83476893
C       -2.99819158      -7.59850909      -8.62377709
O       -3.88410057      -7.30065355      -7.82592641
C       -3.08158140      -8.85065274      -9.49693156
O       -2.39388459      -9.94074516      -8.89894546
C       -3.05316940     -10.60645122      -7.90212120
C       -2.24160495     -11.11759487      -6.88546830
C       -2.79748007     -11.85420029      -5.83583183
C       -4.17006581     -12.09089253      -5.81389891
Br      -4.92757527     -13.10821598      -4.41266982
C       -4.98558873     -11.59660231      -6.82841061
C       -4.42591424     -10.85725860      -7.87600458
H        0.75345094      -2.13994848      -1.52474568
H       -0.66075291      -3.59811104      -2.88863185
H       -4.12740438      -1.27722423      -1.80932900
H       -2.70613350       0.16743599      -0.38749484
H       -1.83572818      -3.65664938      -4.60442834
H       -3.25870649      -2.74645748      -5.20146610
H       -3.54494314      -6.28135019      -6.50885808
H       -1.20663951      -7.13855626      -9.56277818
H       -2.58399365      -8.64334043     -10.45060283
H       -4.12285704      -9.05896274      -9.75869900
H       -1.16912754     -10.94124492      -6.90501787
H       -2.15550838     -12.23930379      -5.04913835
H       -6.05561321     -11.78823869      -6.82189489
H       -5.09059891     -10.51906003      -8.66309534
C       -0.88142068       0.88142068       0.88142068
C       -0.43279105       2.14309013       1.25988616
C       -1.24456937       2.95809146       2.05381597
C       -2.48553910       2.49442276       2.49522921
C       -2.94117559       1.23971464       2.08814797
C       -2.13550454       0.42671317       1.28620942
O       -3.35715285       3.24723467       3.23825313
C       -2.77149017       3.88525609       4.37631742
C       -3.54661732       5.14152872       4.78518120
O       -4.64474733       5.42220338       4.29346994
N       -3.01804465       5.99744212       5.70926195
C       -1.80419973       5.94630009       6.36908262
N       -0.93084335       4.94352509       6.27540505
O        0.16848427       5.31738327       7.02178232
N       -0.01440887       6.56458935       7.58930868
C       -1.24120562       6.94413199       7.22692653
N       -1.70469215       8.15912432       7.69227013
C       -2.99694318       8.61813614       7.60539845
O       -3.92431934       8.00765578       7.07870541
C       -3.19142467       9.99326073       8.24448030
O       -2.86637315      11.03389524       7.33330683
C       -3.81555340      11.34696980       6.39921862
C       -3.32116314      11.76347531       5.16002967
C       -4.19520772      12.15149443       4.14081004
C       -5.56905466      12.13526025       4.37054234
Br      -6.75794467      12.68323353       3.00728287
C       -6.07120984      11.73381310       5.60557869
C       -5.19328559      11.34338862       6.62250322
H        0.53470854       2.51313796       0.93281380
H       -0.89761517       3.95889909       2.29098153
H       -3.92480582       0.89388301       2.39526879
H       -2.49865633      -0.54999524       0.97753126
H       -1.74081453       4.17555897       4.18043240
H       -2.81124135       3.17958521       5.21580350
H       -3.61081439       6.80649875       5.91783827
H       -1.01300642       8.68784289       8.20712464
H       -2.50276126      10.08355252       9.09162312
H       -4.19127015      10.06782512       8.68142351
H       -2.24910797      11.78493282       4.98134954
H       -3.79698883      12.46620323       3.18075845
H       -7.14188851      11.73025330       5.79360498
H       -5.62325285      11.06990366       7.57959777
C        0.88142068      -0.88142068       0.88142068
C        1.72046470      -0.29273135       1.82257129
C        2.51674137      -1.09830425       2.64143118
C        2.49721050      -2.48646297       2.49151759
C        1.63225139      -3.07126379       1.56552302
C        0.82778420      -2.26842103       0.75222190
O        3.21366245      -3.34602689       3.28295131
C        4.59500096      -3.00670236       3.43136036
C        5.17907807      -3.55906132       4.73518785
O        4.55825656      -4.35843202       5.44373206
N        6.41631949      -3.15686223       5.15156699
C        7.28931901      -2.24928139       4.58098205
N        7.09660491      -1.64438232       3.40878626
O        8.15334590      -0.77136471       3.24597073
N        9.01740018      -0.82727985       4.32362687
C        8.51673444      -1.76237215       5.13315755
N        9.21200954      -2.05362238       6.29045467
C        8.97513768      -3.11525487       7.13008521
O        8.08843759      -3.95109075       6.97115219
C        9.94179209      -3.17436776       8.31300584
O        9.49338772      -2.35584300       9.38434449
C        8.50806985      -2.87473099      10.17894098
C        7.60450814      -1.94286535      10.69729462
C        6.58076755      -2.34904731      11.55769734
C        6.47211417      -3.69226616      11.91047691
Br       5.10712396      -4.24719268      13.09414443
C        7.37466433      -4.62657110      11.40936621
C        8.39644043      -4.21665558      10.54608141
H        1.75407815       0.78626389       1.94342898
H        3.12201076      -0.62026714       3.40521789
H        1.58391142      -4.15348390       1.47656229
H        0.16010521      -2.73398637       0.03210077
H        4.73991780      -1.92784522       3.42904288
H        5.14533307      -3.46269779       2.59859921
H        6.72038922      -3.58227735       6.03248484
H       10.00854616      -1.45069259       6.44873520
H       10.91037607      -2.77677378       7.99078705
H       10.13835681      -4.21464462       8.58751734
H        7.69252695      -0.89286886      10.42999453
H        5.88179255      -1.61488969      11.94726828
H        7.30107536      -5.67404183      11.69062961
H        9.09800402      -4.96975769      10.20499258
