190
Properties=species:S:1:pos:R:3 pbc="F F F"
C        1.79132470       1.79132470      -1.79132470
C        3.15368546       1.52466253      -1.88713143
C        3.95990591       2.32057222      -2.70571075
C        3.40734308       3.40089412      -3.39666594
C        2.03548520       3.64481974      -3.31844533
C        1.22541605       2.84444792      -2.50827523
O        4.12027854       4.20044388      -4.25163031
C        5.35357066       4.69054336      -3.71866173
C        6.36131837       5.01654090      -4.82518004
O        6.04171873       5.02986634      -6.01854765
N        7.66072550       5.28944186      -4.50429343
C        8.28420199       5.29475500      -3.27033753
N        7.66313053       5.11120618      -2.10514886
O        8.64755846       5.11528887      -1.13754607
N        9.89730399       5.30277125      -1.69794373
C        9.68178519       5.45418402      -3.00600700
N       10.77389228       5.69559461      -3.81631177
C       10.73262987       6.08375936      -5.13380060
O        9.70325549       6.25411802      -5.78301911
C       12.11885768       6.29830638      -5.74171371
O       12.66369209       5.07725413      -6.22234106
C       12.21099939       4.64255400      -7.43790049
C       12.13324536       3.25494707      -7.58618777
C       11.72616450       2.69210173      -8.79895803
C       11.40997471       3.52387446      -9.87072015
Br      10.88379398       2.77157328     -11.52280589
C       11.49607749       4.90712083      -9.73711539
C       11.90124266       5.46697144      -8.52067540
H        3.59951815       0.69411994      -1.34731721
H        5.00878932       2.06049966      -2.80791889
H        1.59585895       4.45894608      -3.88886466
H        0.15878822       3.04509901      -2.45201719
H        5.81222785       3.96411449      -3.05017564
H        5.14030561       5.62016121      -3.17587532
H        8.25658122       5.49691887      -5.31136339
H       11.65936077       5.64862074      -3.32970451
H       12.79078646       6.66076653      -4.95609599
H       12.08558765       7.10327550      -6.48136770
H       12.38759157       2.60376403      -6.75374681
H       11.66378430       1.61241459      -8.89746370
H       11.26141165       5.56014895     -10.57389826
H       11.98724449       6.54659652      -8.46862535
C       -1.79132470      -1.79132470      -1.79132470
C       -1.54613498      -3.15934528      -1.85999915
C       -2.36149406      -3.97069230      -2.65400252
C       -3.39561116      -3.40595057      -3.40334141
C       -3.65366762      -2.03781737      -3.30726528
C       -2.84592564      -1.22580555      -2.50640801
O       -4.26481357      -4.13724543      -4.17029373
C       -3.63821493      -5.07619255      -5.04836827
C       -4.56925191      -6.24341966      -5.39036774
O       -5.76694653      -6.23600209      -5.08718410
N       -4.07634250      -7.34097057      -6.03714772
C       -2.78474651      -7.62260113      -6.44194688
N       -1.75723030      -6.77907243      -6.34318284
O       -0.64642751      -7.46963315      -6.78433274
N       -0.97734914      -8.75718713      -7.16348270
C       -2.29768263      -8.84977842      -6.99451515
N       -2.91013014     -10.03968531      -7.33598321
C       -4.26409427     -10.25299325      -7.43310232
O       -5.12557741      -9.40578899      -7.20902621
C       -4.61983044     -11.67643641      -7.86261092
O       -4.66260185     -12.55439592      -6.74628951
C       -5.79570999     -12.51495414      -5.98078975
C       -5.60495292     -12.75267191      -4.61675536
C       -6.69438173     -12.78110591      -3.74173662
C       -7.98062150     -12.58470687      -4.23924095
Br      -9.46268379     -12.64747108      -3.06801828
C       -8.18255559     -12.35943333      -5.59832479
C       -7.08927888     -12.32885875      -6.47075187
H       -0.73879200      -3.61129304      -1.29087025
H       -2.18600210      -5.04186989      -2.64933588
H       -4.48469187      -1.60264516      -3.85633266
H       -3.05363514      -0.16103822      -2.44123107
H       -2.73238302      -5.48756177      -4.60657318
H       -3.39814905      -4.55461629      -5.98357680
H       -4.77536887      -8.06639139      -6.22310323
H       -2.26206494     -10.76671509      -7.60890599
H       -3.83285780     -12.04539183      -8.52939935
H       -5.52863277     -11.67053528      -8.47106280
H       -4.60290941     -12.91453652      -4.22765647
H       -6.53033072     -12.96007376      -2.68325811
H       -9.18528433     -12.21694336      -5.99323117
H       -7.29267814     -12.18390049      -7.52588773
C       -1.79132470       1.79132470       1.79132470
C       -1.33969222       3.05015306       2.17563413
C       -2.15139847       3.86521523       2.96957518
C       -3.39544599       3.40429362       3.40516352
C       -3.85396356       2.15254810       2.99223860
C       -3.04833029       1.33953399       2.19027492
O       -4.26702486       4.15754553       4.14778234
C       -3.68308788       4.78967323       5.29001464
C       -4.45532034       6.04718953       5.70052944
O       -5.55079728       6.33329649       5.20603895
N       -3.92699714       6.89813193       6.62933171
C       -2.71559911       6.84058548       7.29310993
N       -1.84535265       5.83515259       7.19898032
O       -0.74731721       6.20269809       7.95037811
N       -0.92789652       7.44857981       8.52154264
C       -2.15214410       7.83355284       8.15627927
N       -2.61307369       9.04853006       8.62419492
C       -3.90344667       9.51225564       8.53448753
O       -4.83109165       8.90675289       8.00254807
C       -4.09542280      10.88584996       9.17760501
O       -3.76370704      11.92846772       8.27111252
C       -4.70861138      12.24797332       7.33486919
C       -4.20856504      12.66700862       6.09880653
C       -5.07778760      13.06149111       5.07794555
C       -6.45246014      13.04917561       5.30293357
Br      -7.63480136      13.60586145       3.93751033
C       -6.96020574      12.64523924       6.53486874
C       -6.08710391      12.24834595       7.55343964
H       -0.36982232       3.41800086       1.85313212
H       -1.80184639       4.86401477       3.21134671
H       -4.83981304       1.80903949       3.29481716
H       -3.41375282       0.36513276       1.87701885
H       -2.65076366       5.07711332       5.09864099
H       -3.72811875       4.08128326       6.12694013
H       -4.51771423       7.70849648       6.83865278
H       -1.92135475       9.57311901       9.14321225
H       -3.40935885      10.97089421      10.02739592
H       -5.09649774      10.96234515       9.61138796
H       -3.13583766      12.68540616       5.92385858
H       -4.67521409      13.37810794       4.12034055
H       -8.03152758      12.64470260       6.71922869
H       -6.52127468      11.97307124       8.50812043
C        1.79132470      -1.79132470       1.79132470
C        3.07856085      -1.37281431       2.11410425
C        3.88175641      -2.17068467       2.93374780
C        3.40775425      -3.39948091       3.39766797
C        2.10573380      -3.79938037       3.09363610
C        1.29706785      -2.99881684       2.28225451
O        4.11533914      -4.21781426       4.23919933
C        5.46305610      -4.46821952       3.83150013
C        6.36068446      -4.82084017       5.02151467
O        5.89952113      -5.04503633       6.14557527
N        7.71562652      -4.88015602       4.85867825
C        8.48286421      -4.63041614       3.73601417
N        7.99261284      -4.36084626       2.52602647
O        9.08070236      -4.10293005       1.71676100
N       10.26437434      -4.21097584       2.42266880
C        9.91084014      -4.57415995       3.65697612
N       10.91621917      -4.79070824       4.57887126
C       10.76652689      -5.36586588       5.81779707
O        9.69916336      -5.75500368       6.28622557
C       12.08212259      -5.49021843       6.58653675
O       12.38176747      -4.29223248       7.28928733
C       11.72292122      -4.09642620       8.47210647
C       11.42905540      -2.76517187       8.78015292
C       10.79696070      -2.43745540       9.98280816
C       10.47172337      -3.44727633      10.88556962
Br       9.64057037      -3.01146504      12.52613774
C       10.77132297      -4.77531061      10.59368014
C       11.40156671      -5.09980055       9.38752224
H        3.46469019      -0.42425980       1.75200531
H        4.86138831      -1.79878406       3.21703550
H        1.71951408      -4.73543078       3.48872482
H        0.28574563      -3.32119129       2.04896750
H        5.89280475      -3.60182014       3.33189309
H        5.45490735      -5.32969756       3.15173723
H        8.22936245      -5.12501858       5.71048245
H       11.83965375      -4.56402390       4.23400837
H       12.89204434      -5.64932636       5.86627827
H       12.07234456      -6.39070300       7.20718330
H       11.68953132      -1.97469609       8.08087499
H       10.56857131      -1.39943118      10.20566010
H       10.52988904      -5.56575795      11.29981188
H       11.64732453      -6.14146989       9.21367194
C       -0.00445707       0.01189536      -1.78238275
H       -0.66409135       0.67374010      -2.43557963
H        0.65740317      -0.63156657      -2.45157240
C       -0.90989263      -0.90692880      -0.91072765
C        0.90977584       0.90977584      -0.90977584
C       -0.00465871       1.77757030       0.00794375
H       -0.66225468       2.44313916      -0.64384735
H        0.64322798       2.43503045       0.67728295
C       -1.78241447       0.00034974      -0.00472694
H       -2.45427497      -0.65498947       0.64260836
H       -2.43311707       0.67328779      -0.65473579
C       -0.91132561       0.90220522       0.91563759
C       -0.01476271      -0.02253852       1.78660255
H       -0.67934791      -0.69751639       2.42135241
H        0.63392994       0.61504881       2.47327442
C        0.01484550      -1.77751727      -0.01636693
H        0.67870853      -2.42144646      -0.68295456
H       -0.62264859      -2.45592969       0.64226336
C        1.78714474       0.01002794       0.00389507
H        2.44202412       0.67113390       0.66197326
H        2.45385902      -0.65136977      -0.64189061
C        0.91606151      -0.90478549       0.90901405
