89
Properties=species:S:1:pos:R:3 pbc="F F F"
C        0.00000000       0.00000000       0.00000000
C        0.86670303       0.86670303      -0.86670303
C        2.18038014       0.58670770      -1.24729247
N        2.69204563       1.54761994      -2.02257161
N        1.67381281       2.44881177      -2.16529966
C        0.56012470       2.06948191      -1.43764964
C        1.84255568       3.63922873      -2.92136511
O        0.96817963       4.49262814      -2.77300991
C        2.98128376       3.87042199      -3.78262820
C        3.59163852       3.07354261      -4.72800492
C        4.63269156       3.83471775      -5.27305953
N        4.68508178       5.05536862      -4.73776455
N        3.65878521       5.06512730      -3.86117670
C        3.38999407       6.27411254      -3.11420048
H        2.79562311      -0.26850056      -0.99636814
H       -0.32768676       2.68610730      -1.42301413
H        5.34206087       3.56764404      -6.04596274
H        3.23962438       6.01483578      -2.06342510
H        2.49663118       6.74267592      -3.53416331
H        4.24382438       6.95169828      -3.20239874
C        3.24787536       1.75452519      -5.19235386
C        2.95997371       0.64984810      -5.58124610
Br       2.49446109      -1.13632131      -6.21005197
C       -0.86670303      -0.86670303      -0.86670303
C       -0.61467446      -2.19844964      -1.20125621
N       -1.56816715      -2.70532131      -1.98874873
N       -2.46530782      -1.68447101      -2.13814542
C       -2.03805175      -0.53981748      -1.48938702
C       -3.62913055      -1.83603118      -2.93798779
O       -4.22439923      -0.79487528      -3.21454317
C       -4.07878033      -3.11590536      -3.43964826
C       -4.23109384      -4.33953950      -2.82255271
C       -4.73223857      -5.21258530      -3.79564498
N       -4.91795294      -4.59629666      -4.96396535
N       -4.54506268      -3.32276825      -4.71725829
C       -4.65646873      -2.34482443      -5.77701393
H        0.21889744      -2.82767199      -0.91471615
H       -2.62216218       0.36900210      -1.52827458
H       -4.98902989      -6.26042703      -3.70621073
H       -3.73171253      -1.76448439      -5.82168834
H       -5.51268623      -1.70192727      -5.55885692
H       -4.80871601      -2.85923033      -6.72997506
C       -4.02931717      -4.71763247      -1.44780477
C       -3.86032921      -5.03428533      -0.29645338
Br      -3.58708997      -5.54628622       1.56518445
C       -0.86670303       0.86670303       0.86670303
C       -0.86188645       2.26256499       0.88992886
N       -1.74577186       2.75122565       1.76523967
N       -2.35029683       1.64439035       2.29323706
C       -1.80306352       0.48055622       1.78363650
C       -3.35413714       1.75741026       3.29160212
O       -3.64197326       0.71412315       3.87772128
C       -3.97960872       3.01389345       3.64083177
C       -4.51018089       4.02070473       2.86230042
C       -5.00889729       4.98337188       3.74819967
N       -4.83786083       4.62012093       5.02023319
N       -4.24119235       3.41270890       4.93118796
C       -3.93793587       2.69227184       6.14809938
H       -0.25569114       2.95217814       0.31562142
H       -2.15274634      -0.48698028       2.11566861
H       -5.50483554       5.92062224       3.53020986
H       -2.91459392       2.31370654       6.08958480
H       -4.65410185       1.87285791       6.24651065
H       -4.02608718       3.37006173       7.00177249
C       -4.65004299       4.11265034       1.43206107
C       -4.76717750       4.18965479       0.23423562
Br      -4.95657410       4.31416448      -1.70254684
C        0.86670303      -0.86670303       0.86670303
C        2.19344810      -0.60640168       1.21453052
N        2.70144192      -1.56175045       1.99904482
N        1.66824287      -2.43846567       2.18121570
C        0.54761918      -2.05095616       1.46868090
C        1.82838210      -3.61647858       2.95828885
O        0.93389663      -4.45434749       2.84557357
C        2.97983434      -3.85371205       3.80078756
C        3.62584131      -3.05060136       4.71674337
C        4.66227903      -3.82200452       5.25618529
N        4.67863083      -5.05413777       4.74544635
N        3.63433256      -5.06040560       3.89035106
C        3.32547279      -6.27851011       3.17432418
H        2.82063993       0.23052882       0.93337959
H       -0.35268799      -2.64914653       1.48497612
H        5.39287175      -3.55405012       6.00874577
H        3.15858906      -6.03763133       2.12166487
H        2.43167651      -6.71972795       3.62206595
H        4.16696560      -6.97177548       3.25918031
C        3.31876895      -1.71552702       5.16045844
C        3.06159586      -0.59740225       5.53206980
Br       2.64576871       1.21051093       6.13293395
