97
Properties=species:S:1:pos:R:3 pbc="F F F"
C        0.00000000       0.00000000       0.00000000
C        0.87780439       0.87780439      -0.87780439
C        2.25024087       0.92901042      -0.68482248
C        3.02193895       1.76142489      -1.49802165
C        2.39352175       2.50957824      -2.48541762
N        1.06185623       2.44824868      -2.70553785
C        0.33209367       1.64627788      -1.89108016
N        3.05578922       3.38161022      -3.34688743
C        4.33679821       3.86469809      -3.24315896
O        5.10073789       3.61551341      -2.31665675
C        4.70297882       4.78359210      -4.29543593
C        4.39934166       4.82031691      -5.64032443
Br       3.37571774       3.63963926      -6.67044126
C        5.05841327       5.93794805      -6.16678020
N        5.73958832       6.59704316      -5.22837731
N        5.52595097       5.87328633      -4.10791842
C        6.09194655       6.33309140      -2.85853517
H        2.73124844       0.33549197       0.08724985
H        4.09492524       1.78878411      -1.34780432
H       -0.73641136       1.64835313      -2.08839633
H        2.44430730       3.76453992      -4.05543386
H        5.07898451       6.30404716      -7.18559998
H        5.30671266       6.34048784      -2.09850018
H        6.47752263       7.34773332      -2.98744629
H        6.90374999       5.65728360      -2.57978107
C       -0.87780439      -0.87780439      -0.87780439
C       -0.71305576      -0.89627400      -2.25474401
C       -1.55064392      -1.70040948      -3.03033208
C       -2.52142912      -2.46782299      -2.39926550
N       -2.67501919      -2.48363500      -1.05698857
C       -1.86137997      -1.68071518      -0.32735656
N       -3.42004785      -3.29678088      -3.06745815
C       -3.70414557      -3.33018514      -4.41032454
O       -3.21287862      -2.57634617      -5.24368325
C       -4.71825477      -4.29333461      -4.77041747
C       -5.00496344      -5.55701654      -4.29800301
Br      -4.14819204      -6.56418153      -2.97342468
C       -6.09205191      -6.02459533      -5.04649427
N       -6.49884790      -5.12393538      -5.94222551
N       -5.64451209      -4.09160943      -5.77103419
C       -5.82326449      -2.89549443      -6.56481419
H        0.05296613      -0.29574006      -2.73671661
H       -1.40954217      -1.71719921      -4.10477229
H       -2.03803194      -1.70675052       0.74444436
H       -3.98764983      -3.84313534      -2.43349590
H       -6.60653297      -6.97547405      -4.98662463
H       -5.81757676      -2.02822694      -5.89989698
H       -6.78434236      -2.94524091      -7.08311899
H       -5.00918726      -2.84039260      -7.29123479
C       -0.87780439       0.87780439       0.87780439
C       -0.32044816       1.85636427       1.68726134
C       -1.15656290       2.63045726       2.49436532
C       -2.52667143       2.40458489       2.45726129
N       -3.08766830       1.47570447       1.65227000
C       -2.25312266       0.72485867       0.89147039
N       -3.45599256       3.10393132       3.22436300
C       -3.22128603       3.92036596       4.30300327
O       -2.11474100       4.12940074       4.78876630
C       -4.41966053       4.46743327       4.89491305
C       -5.60594340       4.90781862       4.34622097
Br      -6.13863103       4.99312723       2.55403999
C       -6.39590428       5.35481391       5.41242332
N       -5.77447217       5.20719997       6.58333665
N       -4.57464561       4.68543846       6.24707164
C       -3.63852988       4.34795946       7.29708376
H        0.75202408       2.02738106       1.70413357
H       -0.71480026       3.39981625       3.11689716
H       -2.74621946      -0.02584502       0.27996366
H       -4.41002611       2.86208199       2.99217297
H       -7.39062559       5.78224504       5.39576102
H       -3.28238484       3.32743250       7.13588333
H       -4.14407829       4.40403759       8.26458637
H       -2.81327216       5.06303520       7.26450730
C        0.87780439      -0.87780439       0.87780439
C        1.29530462      -2.12656170       0.44220745
C        2.08491905      -2.91271120       1.28375523
C        2.43849084      -2.41752440       2.53250237
N        2.06479185      -1.19133035       2.95952056
C        1.28357232      -0.45456113       2.13131826
N        3.21028189      -3.11363820       3.46036678
C        3.53975498      -4.44651519       3.45838508
O        3.15333954      -5.25679081       2.62277770
C        4.33206126      -4.85543812       4.59450747
C        5.33681849      -4.22494500       5.29821951
Br       6.11058727      -2.54140261       5.03380837
C        5.75065325      -5.12165332       6.29083494
N        5.05644438      -6.25977121       6.24879321
N        4.21609959      -6.08549975       5.20555637
C        3.26389295      -7.12826082       4.89141934
H        1.01678060      -2.50121146      -0.53850151
H        2.41553791      -3.88330194       0.93267382
H        0.98660577       0.51297249       2.52670482
H        3.43852695      -2.55438552       4.27136860
H        6.52334624      -5.00493822       7.04034719
H        2.27182748      -6.68049505       4.79337814
H        3.24928245      -7.86136379       5.70205601
H        3.57381681      -7.60723215       3.95976569
