85
Properties=species:S:1:pos:R:3 pbc="F F F"
C        0.00000000       0.00000000       0.00000000
C        1.60505612       3.43215319      -3.26618206
N        1.54885550       2.37638964      -2.28303334
C        0.42870632       1.86121595      -1.70834813
C        0.87061796       0.87061796      -0.87061796
C        2.28048453       0.84727349      -0.98570128
N        2.69289153       1.80091642      -1.85946557
C        3.26278444      -0.02139591      -0.30562858
O        2.92920282      -0.93714993       0.43369634
N        4.54809983       0.35915288      -0.61699314
C        5.65329564      -0.24938150      -0.10915040
N        5.73927624      -1.28390513       0.68856278
C        7.07175492      -1.54252678       0.95552412
C        7.95468758      -0.68361949       0.34850182
Br       9.81022693      -0.76371970       0.53014599
S        7.13071124       0.46615584      -0.59198236
H        0.60629040       3.85343552      -3.40507596
H        1.96539322       3.00478677      -4.20525518
H        2.28831953       4.20547284      -2.90672489
H       -0.56270109       2.22674131      -1.93702588
H        4.65661351       1.15120116      -1.23896284
H        7.32821131      -2.37107098       1.60429469
C       -1.61899147      -3.51839804      -3.16600185
N       -1.55611649      -2.41445010      -2.23771188
C       -0.44081937      -1.92758218      -1.62986885
C       -0.87061796      -0.87061796      -0.87061796
C       -2.26912334      -0.78007511      -1.06426085
N       -2.68726185      -1.75757403      -1.90843763
C       -3.23623780       0.17483898      -0.48561828
O       -2.89176592       1.11126701       0.22214235
N       -4.52255529      -0.15466249      -0.84702807
C       -5.61755086       0.53779451      -0.43330820
N       -5.68793596       1.61777070       0.30335693
C       -7.01626040       1.95991953       0.48263685
C       -7.91227410       1.11614347      -0.12643564
Br      -9.76753135       1.30289331      -0.05172320
S       -7.10491778      -0.12514662      -0.95878503
H       -0.63906483      -3.99826043      -3.22747661
H       -1.90571769      -3.12518770      -4.14452978
H       -2.36165436      -4.23401206      -2.80485084
H        0.53952938      -2.35641067      -1.78418480
H       -4.64192008      -0.97302654      -1.43183089
H       -7.26020146       2.83520500       1.07215082
C       -3.40306209       1.60270349       3.29762579
N       -2.34513881       1.54632821       2.31681146
C       -1.81580376       0.42503379       1.75743286
C       -0.87061796       0.87061796       0.87061796
C       -0.87828034       2.28299209       0.95218687
N       -1.79277695       2.69223328       1.86826329
C       -0.05941615       3.26931980       0.21828116
O        0.72426625       2.94641897      -0.66379617
N       -0.30390901       4.54363219       0.67670464
C        0.33199000       5.64661500       0.19843955
N        1.21445973       5.74489237      -0.76362431
C        1.59970156       7.06713113      -0.89372555
C        0.99295110       7.92967158      -0.01415421
Br       1.31793869       9.76540661       0.06889332
S       -0.09558040       7.10074238       0.99252665
H       -3.64926383       0.58977880       3.62575924
H       -4.27533511       2.06814391       2.83195616
H       -3.05711542       2.19545056       4.14795128
H       -2.14622009      -0.56921293       2.02405894
H       -0.97773634       4.64258521       1.42645596
H        2.33024522       7.33151294      -1.64842208
C        3.63018537      -1.65610578       3.01710022
N        2.44881130      -1.56752469       2.19194249
C        1.99488095      -0.46316311       1.54022635
C        0.87061796      -0.87061796       0.87061796
C        0.69975655      -2.24245693       1.17124582
N        1.68288980      -2.66246608       2.00791763
C       -0.35010198      -3.17804905       0.71907003
O       -1.21160992      -2.85845125      -0.08848478
N       -0.21139334      -4.40102176       1.33461742
C       -1.05789480      -5.44487331       1.12608603
N       -2.08561622      -5.53260742       0.31981712
C       -2.66189294      -6.78319949       0.45239747
C       -2.04690748      -7.60325285       1.36622090
Br      -2.60026009      -9.33679499       1.77982634
S       -0.71169737      -6.82707875       2.07346805
H        4.05968584      -0.65945857       3.14565747
H        4.34734831      -2.31148500       2.51660187
H        3.34510417      -2.06652968       3.98888341
H        2.49457530       0.49365760       1.60014840
H        0.55217253      -4.50219312       1.99241187
H       -3.53089816      -7.02922565      -0.14548186
