117
Properties=species:S:1:pos:R:3 pbc="F F F"
C        0.00000000       0.00000000       0.00000000
C        0.88161844       0.88161844      -0.88161844
C        0.85653298       2.26495494      -0.72123315
C        1.65874267       3.07108768      -1.53209661
C        2.49261261       2.49769458      -2.50403207
C        2.51059775       1.10380440      -2.64868934
C        1.70511602       0.29708924      -1.84132096
C        3.35208071       3.36962601      -3.38783112
C        4.40309259       4.13563857      -2.62357315
O        4.23353115       5.26043110      -2.15876046
N        5.63185767       3.46634303      -2.43249759
N        5.83035952       2.22760597      -2.97428414
C        7.07123549       1.87953785      -2.61677459
C        7.62325481       0.56442542      -3.02646532
C        7.68228705       2.89237424      -1.86177946
Br       9.42053111       2.82403262      -1.16665452
C        6.76308781       3.90787735      -1.74997864
C        6.84383619       5.22762862      -1.07231222
H        0.21731314       2.72562083       0.02724827
H        1.62759625       4.15203927      -1.39965584
H        3.15513213       0.63504384      -3.39048008
H        1.72849532      -0.78215906      -1.96932456
H        2.70155129       4.10833552      -3.87493981
H        3.79032070       2.80549837      -4.21838705
H        7.81483112      -0.05942427      -2.14754634
H        8.56320909       0.69414715      -3.57245753
H        6.93003371       0.02318912      -3.67907310
H        6.07270147       5.31720876      -0.30083506
H        6.72421759       6.04174987      -1.79434254
H        7.81108976       5.36942311      -0.58110631
C       -0.88161844      -0.88161844      -0.88161844
C       -2.10343329      -0.39696309      -1.34232469
C       -2.91202425      -1.20616702      -2.14373568
C       -2.50094637      -2.50186478      -2.49152810
C       -1.26608869      -2.97233753      -2.02466527
C       -0.45886926      -2.16542106      -1.21923590
C       -3.37966930      -3.38065640      -3.34921214
C       -3.58498078      -2.83633207      -4.74099146
O       -4.50629559      -2.08782509      -5.05860204
N       -2.61741288      -3.21643693      -5.69684849
N       -1.60958789      -4.07194196      -5.35071978
C       -0.87986323      -4.22690865      -6.46077604
C        0.32471626      -5.09342211      -6.44543969
C       -1.41914512      -3.49057801      -7.52671762
Br      -0.71848519      -3.42971673      -9.26301633
C       -2.53262800      -2.85015598      -7.03815982
C       -3.50438509      -1.94077300      -7.69861894
H       -2.43680161       0.60445052      -1.08333461
H       -3.86722120      -0.81721688      -2.49485328
H       -0.92188266      -3.97126102      -2.28751237
H        0.49434517      -2.54739854      -0.86260745
H       -4.36838620      -3.44146116      -2.87497926
H       -3.02582400      -4.41720278      -3.37117935
H        1.22500658      -4.49845500      -6.62950477
H        0.25400700      -5.86547099      -7.21834976
H        0.44528536      -5.59710547      -5.48047580
H       -3.52177260      -0.96423201      -7.20474068
H       -4.51134344      -2.36982466      -7.67914189
H       -3.24564360      -1.76840051      -8.74757507
C       -0.88161844       0.88161844       0.88161844
C       -0.32356078       1.96803965       1.55112064
C       -1.12939716       2.77041901       2.36211079
C       -2.49742911       2.49276459       2.50414554
C       -3.04462231       1.39942100       1.81904818
C       -2.23847245       0.59361562       1.01143814
C       -3.36662959       3.35379625       3.38911200
C       -3.48257009       4.77699398       2.90274024
O       -2.72646886       5.68430090       3.24195295
N       -4.52277919       5.02701614       1.98090298
N       -5.38130860       4.02476972       1.62617132
C       -6.23240593       4.57908733       0.75605467
C       -7.30890578       3.76183654       0.14340323
C       -5.94009203       5.93737676       0.55897196
Br      -6.88649121       7.09465113      -0.56992409
C       -4.85093906       6.22315656       1.34684818
C       -4.10093809       7.48890047       1.55393846
H        0.73391387       2.19800101       1.45159855
H       -0.68054796       3.61512964       2.88361375
H       -4.10496187       1.16849949       1.90719470
H       -2.67837039      -0.25276209       0.49005251
H       -2.90981414       3.38774090       4.38727158
H       -4.35172991       2.90505655       3.55741967
H       -7.15882834       3.68216395      -0.93803910
H       -8.28843434       4.21525079       0.32612863
H       -7.32816008       2.74771767       0.55641816
H       -3.05069813       7.37034711       1.26970005
H       -4.15510935       7.80437614       2.60082450
H       -4.51020530       8.30301785       0.94839603
C        0.88161844      -0.88161844       0.88161844
C        2.00700797      -0.33870001       1.49701309
C        2.81628144      -1.14721475       2.29843076
C        2.50185254      -2.50095979       2.49152692
C        1.36271301      -3.03036122       1.87001726
C        0.55536685      -2.22361276       1.06454660
C        3.38241079      -3.37774636       3.34938069
C        3.41316917      -2.95272287       4.79641228
O        4.22786820      -2.16064340       5.26421112
N        2.40680983      -3.50482658       5.61906189
N        1.51899619      -4.40781323       5.10544021
C        0.71364030      -4.73067614       6.12323150
C       -0.39698944      -5.69319798       5.91793701
C        1.08560955      -4.05517592       7.29565528
Br       0.23407761      -4.22115197       8.95598868
C        2.17124442      -3.27676740       6.97293198
C        2.99083552      -2.35343564       7.79950587
H        2.26469511       0.70800314       1.35899373
H        3.69592377      -0.71193656       2.77143102
H        1.09370615      -4.07590459       2.01104531
H       -0.32249483      -2.65127915       0.58687649
H        4.40988564      -3.30691833       2.96802265
H        3.12836775      -4.43848653       3.24735185
H       -1.36244600      -5.19899264       6.06640654
H       -0.32049792      -6.52629171       6.62401997
H       -0.38468544      -6.11121853       4.90576283
H        2.95796772      -1.33648460       7.39629297
H        4.03195519      -2.68952027       7.83883453
H        2.62665333      -2.30493236       8.83003349
