125
Properties=species:S:1:pos:R:3 pbc="F F F"
C        0.00000000       0.00000000       0.00000000
C        0.88161844       0.88161844      -0.88161844
C        0.85653298       2.26495494      -0.72123315
C        1.65874267       3.07108768      -1.53209661
C        2.49261261       2.49769458      -2.50403207
C        2.51059775       1.10380440      -2.64868934
C        1.70511602       0.29708924      -1.84132096
C        3.35208071       3.36962601      -3.38783112
C        4.40309259       4.13563857      -2.62357315
O        4.23353115       5.26043110      -2.15876046
N        5.63185767       3.46634303      -2.43249759
N        5.83035952       2.22760597      -2.97428414
C        7.07123549       1.87953785      -2.61677459
C        7.62325481       0.56442542      -3.02646532
C        7.68228705       2.89237424      -1.86177946
C        6.76308781       3.90787735      -1.74997864
C        6.84383619       5.22762862      -1.07231222
H        0.21731314       2.72562083       0.02724827
H        1.62759625       4.15203927      -1.39965584
H        3.15513213       0.63504384      -3.39048008
H        1.72849532      -0.78215906      -1.96932456
H        2.70155129       4.10833552      -3.87493981
H        3.79032070       2.80549837      -4.21838705
H        7.81483112      -0.05942427      -2.14754634
H        8.56320909       0.69414715      -3.57245753
H        6.93003371       0.02318912      -3.67907310
H        6.07270147       5.31720876      -0.30083506
H        6.72421759       6.04174987      -1.79434254
H        7.81108976       5.36942311      -0.58110631
C        9.01844925       2.83984106      -1.32744732
C       10.13748510       2.79584453      -0.87994415
Br      11.94687141       2.72470585      -0.15636938
C       -0.88161844      -0.88161844      -0.88161844
C       -1.39570589      -0.37441681      -2.07259837
C       -2.20695630      -1.17946493      -2.87550572
C       -2.50449876      -2.49638645      -2.49345405
C       -1.97450951      -2.99352150      -1.29506048
C       -1.16688167      -2.18753357      -0.48911096
C       -3.39004939      -3.36340823      -3.35608022
C       -2.79369080      -3.65880104      -4.70981246
O       -2.97695736      -2.96703609      -5.70872926
N       -1.95832048      -4.79545519      -4.77692264
N       -1.77793517      -5.58095624      -3.67335823
C       -0.94875026      -6.55498787      -4.06380980
C       -0.51743850      -7.59719421      -3.09951283
C       -0.60544130      -6.41387340      -5.41712605
C       -1.25606844      -5.29230108      -5.87257428
C       -1.27736134      -4.65287866      -7.21353702
H       -1.17453859       0.64297176      -2.38411887
H       -2.60616806      -0.77020156      -3.80292173
H       -2.18476054      -4.01465966      -0.98123585
H       -0.76706765      -2.58775108       0.43915791
H       -4.33247605      -2.82586753      -3.52648304
H       -3.69168684      -4.28183207      -2.84068722
H        0.56220455      -7.53597145      -2.92918629
H       -0.75335684      -8.59604887      -3.48040804
H       -1.01810445      -7.48184883      -2.13234263
H       -0.90446616      -3.62523883      -7.16104031
H       -2.29269946      -4.64486204      -7.62274849
H       -0.64487248      -5.19068739      -7.92605931
C        0.26289887      -7.29756028      -6.15107622
C        0.99013376      -8.03764804      -6.76575949
Br       2.16601107      -9.23430736      -7.75965035
C       -0.88161844       0.88161844       0.88161844
C       -0.30148569       1.87733989       1.66389549
C       -1.10792710       2.67938910       2.47461075
C       -2.49822832       2.49233512       2.50377582
C       -3.06688947       1.48999057       1.70621145
C       -2.26061094       0.68428183       0.89863343
C       -3.36911759       3.35234504       3.38807521
C       -3.35352626       4.80971248       2.99906557
O       -2.56452365       5.63513240       3.45306666
N       -4.30523429       5.19571843       2.02974558
N       -5.20143670       4.28426606       1.54654687
C       -5.94820197       4.95593857       0.66340739
C       -7.03022352       4.26168885      -0.07776682
C       -5.55161670       6.29974791       0.58507614
C       -4.50544828       6.45241091       1.46308461
C       -3.68883669       7.64385352       1.81108681
H        0.77349395       2.03650157       1.65267807
H       -0.64205612       3.45243515       3.08480009
H       -4.14396306       1.33084637       1.70584662
H       -2.71769516      -0.09107755       0.28904321
H       -2.98434237       3.28591490       4.41456935
H       -4.39177703       2.96561504       3.45681406
H       -6.80813611       4.24438910      -1.14957202
H       -7.98762985       4.77133022       0.07085369
H       -7.14750374       3.22610526       0.25868692
H       -2.63118355       7.46916495       1.59039679
H       -3.79711212       7.89120389       2.87199398
H       -3.99754590       8.52432820       1.23974508
C       -6.15296538       7.29595718      -0.26318493
C       -6.65659491       8.13028245      -0.97360358
Br      -7.47092125       9.47931584      -2.12229045
C        0.88161844      -0.88161844       0.88161844
C        1.35105140      -0.39310448       2.09856519
C        2.16235294      -1.19793520       2.90163882
C        2.50456907      -2.49609857       2.49367161
C        2.01916967      -2.97476747       1.26915435
C        1.21154197      -2.16882301       0.46316123
C        3.39022072      -3.36252401       3.35679311
C        2.76708423      -3.70911664       4.68610344
O        2.90599104      -3.03962547       5.70710620
N        1.96075248      -4.86839245       4.70155337
N        1.82992393      -5.62870018       3.57362553
C        1.01708389      -6.63389640       3.91656764
C        0.63871771      -7.66092746       2.91450039
C        0.63523577      -6.53772174       5.26348324
C        1.24382753      -5.41218308       5.76493319
C        1.21341017      -4.80827866       7.12208820
H        1.09494185       0.60958278       2.43032663
H        2.52641291      -0.80326244       3.84961600
H        2.26452973      -3.98142305       0.93470327
H        0.84666187      -2.55444905      -0.48545011
H        4.31330622      -2.80548924       3.56603117
H        3.72939212      -4.25881510       2.82599891
H       -0.43740074      -7.62316420       2.71718973
H        0.89115485      -8.66310911       3.27554980
H        1.16100637      -7.50700591       1.96428364
H        0.81482613      -3.78960229       7.08631686
H        2.21724553      -4.78486160       7.55820286
H        0.57720476      -5.38101869       7.80339572
C       -0.22802332      -7.46277546       5.95098549
C       -0.95100281      -8.23750795       6.52676863
Br      -2.11999950      -9.49018487       7.45776126
