138
Properties=species:S:1:pos:R:3 pbc="F F F"
O        5.15037513       0.87984700      -4.65107166
C        5.67589655       1.99770645      -4.69079082
C        4.86045112       3.26550857      -4.82129098
C        3.36155777       3.02307438      -4.74594400
N        2.88174140       2.67611794      -3.42104788
N        3.10145142       3.51389227      -2.38196614
C        2.43071263       2.94628675      -1.37276895
C        1.77682894       1.77682894      -1.77682894
C        2.07977709       1.61630190      -3.10154568
N        7.04105057       2.07707635      -4.61741243
C        7.86426540       3.20367724      -4.72725120
C        9.21829378       3.05474766      -4.43910859
C       10.05522234       4.17356804      -4.49436783
C        9.52012922       5.40220613      -4.85447308
C        8.17382214       5.46046751      -5.15727658
N        7.34797997       4.38863310      -5.10241536
H        5.07533257       3.69996245      -5.80405508
H        5.16136892       3.96703540      -4.03643557
H        3.04921233       2.23431111      -5.43884185
H        2.82924077       3.94042529      -5.02432063
H        2.44356320       3.41952045      -0.39984480
H        1.80030359       0.86981521      -3.83073593
H        7.48408736       1.18408548      -4.44830622
H        9.63072396       2.09475714      -4.14578716
H       11.10827916       4.07687176      -4.24561342
H        7.69348850       6.38836798      -5.45444930
C       10.33984700       6.58514975      -4.90250583
C       11.02636064       7.57586503      -4.94273325
Br      12.13639514       9.17776786      -5.00777760
O       -2.16198441      -6.25583474      -2.26347463
C       -2.70531025      -6.28599295      -3.37309063
C       -3.84964433      -5.36409331      -3.73351304
C       -4.14239391      -4.32663570      -2.66154653
N       -3.14047347      -3.28210900      -2.55632475
N       -2.84138951      -2.52161915      -3.63430117
C       -1.99230816      -1.60819175      -3.14926842
C       -1.77682894      -1.77682894      -1.77682894
C       -2.52443130      -2.86276678      -1.41042659
N       -2.25004056      -7.19018042      -4.29531837
C       -2.75035907      -7.47341421      -5.57142055
C       -2.00459977      -8.31285567      -6.39469459
C       -2.45657823      -8.57483275      -7.69174722
C       -3.64810677      -8.00774376      -8.12095790
C       -4.34591849      -7.21285734      -7.23279041
N       -3.91950916      -6.94350104      -5.97601823
H       -4.74862981      -5.97949416      -3.85122612
H       -3.62142544      -4.86338381      -4.68003064
H       -4.25491676      -4.79137967      -1.67606886
H       -5.08277462      -3.81417501      -2.89703706
H       -1.58432378      -0.86125559      -3.81734909
H       -2.67806590      -3.35937837      -0.46341045
H       -1.43230888      -7.69810572      -3.98606446
H       -1.06693419      -8.74453443      -6.05979965
H       -1.87074886      -9.20615874      -8.35385675
H       -5.28903189      -6.74564030      -7.50163359
C       -4.14012900      -8.23174871      -9.45562486
C       -4.55219761      -8.41935287     -10.57340845
Br      -5.21847771      -8.72269292     -12.38076996
O       -5.28304264       0.90303746       4.49521369
C       -5.76982093       2.03730195       4.55727095
C       -4.91539823       3.26896188       4.76289057
C       -3.42425815       2.97457452       4.73174347
N       -2.90877474       2.65731984       3.41281263
N       -3.06050378       3.53879151       2.39801454
C       -2.37371539       2.98301694       1.39303601
C       -1.77682894       1.77682894       1.77682894
C       -2.13360685       1.58078295       3.08323487
N       -7.12770912       2.16919281       4.43863741
C       -7.91405535       3.32061845       4.56052002
C       -9.26103223       3.23169032       4.21942748
C      -10.05934923       4.37777754       4.28603143
C       -9.49471418       5.57248187       4.70961238
C       -8.15919106       5.57062411       5.06175106
N       -7.37029967       4.47185414       4.99687462
H       -5.15065890       3.67598578       5.75270542
H       -5.16236298       4.00835182       3.99412509
H       -3.16559440       2.15089327       5.40587762
H       -2.87040464       3.86138638       5.06219567
H       -2.33416460       3.49050119       0.43826267
H       -1.90760793       0.79924516       3.79400163
H       -7.59554162       1.29957470       4.22136274
H       -9.69611409       2.29842889       3.87672529
H      -11.10534198       4.32859259       3.99682977
H       -7.65756938       6.46921246       5.40952393
C      -10.27331110       6.78223387       4.77195761
C      -10.92538601       7.79540118       4.82417174
Br     -11.97973601       9.43360702       4.90859757
O        2.21655842      -6.25646732       2.20826805
C        2.74523787      -6.29445839       3.32469756
C        3.87190469      -5.36222735       3.71311864
C        4.16487439      -4.30636609       2.65933566
N        3.15028363      -3.27410055       2.55452304
N        2.82633088      -2.53251315       3.63846580
C        1.97146263      -1.62407230       3.15423341
C        1.77682894      -1.77682894       1.77682894
C        2.54407217      -2.84748165       1.40607085
N        2.28997547      -7.21721878       4.22834510
C        2.77686944      -7.51109360       5.50723079
C        2.03162015      -8.37168371       6.30884616
C        2.46961009      -8.64524368       7.60830443
C        3.64738382      -8.06806168       8.06136292
C        4.34617800      -7.25177800       7.19361023
N        3.93310864      -6.97104593       5.93487386
H        4.77754709      -5.96700443       3.83479858
H        3.62412599      -4.87762074       4.66309315
H        4.29701211      -4.75604107       1.66931212
H        5.09490453      -3.78454080       2.91454135
H        1.54434041      -0.89190293       3.82668512
H        2.71723104      -3.32898974       0.45463394
H        1.48350417      -7.73184815       3.90112674
H        1.10454081      -8.81134699       5.95538047
H        1.88358999      -9.29339840       8.25377595
H        5.27910896      -6.77560696       7.48158986
C        4.12438418      -8.30363070       9.39948769
C        4.52387199      -8.50091976      10.52016718
Br       5.16980999      -8.81991947      12.33221113
C       -0.00445707       0.01189536      -1.78238275
H       -0.66409135       0.67374010      -2.43557963
H        0.65740317      -0.63156657      -2.45157240
C       -0.90989263      -0.90692880      -0.91072765
C        0.90977584       0.90977584      -0.90977584
C       -0.00465871       1.77757030       0.00794375
H       -0.66225468       2.44313916      -0.64384735
H        0.64322798       2.43503045       0.67728295
C       -1.78241447       0.00034974      -0.00472694
H       -2.45427497      -0.65498947       0.64260836
H       -2.43311707       0.67328779      -0.65473579
C       -0.91132561       0.90220522       0.91563759
C       -0.01476271      -0.02253852       1.78660255
H       -0.67934791      -0.69751639       2.42135241
H        0.63392994       0.61504881       2.47327442
C        0.01484550      -1.77751727      -0.01636693
H        0.67870853      -2.42144646      -0.68295456
H       -0.62264859      -2.45592969       0.64226336
C        1.78714474       0.01002794       0.00389507
H        2.44202412       0.67113390       0.66197326
H        2.45385902      -0.65136977      -0.64189061
C        0.91606151      -0.90478549       0.90901405
