142
Properties=species:S:1:pos:R:3 pbc="F F F"
C        1.77694056       1.77694056      -1.77694056
C        1.66152112       3.14086825      -1.91222603
C        2.66116505       3.53198765      -2.83697859
C        3.32393511       2.38102938      -3.21707232
O        2.78816384       1.30777465      -2.55328845
C        4.40125790       2.16442387      -4.15974216
O        4.92508118       3.06100502      -4.81434413
N        4.77667666       0.84467991      -4.28074038
C        5.79272864       0.39973135      -5.20263781
C        5.70279246      -1.09605627      -5.49525699
C        4.47095147      -1.48705501      -6.31781585
N        3.20730549      -1.29923929      -5.63044892
N        2.96039665      -1.97426580      -4.48622281
C        1.73981198      -1.55558040      -4.13035808
C        1.23287762      -0.61211908      -5.03136273
C        2.19247925      -0.46020653      -5.99610922
H        0.94244840       3.77617299      -1.41420578
H        2.87408251       4.52741410      -3.20298258
H        4.31890885       0.17541952      -3.66378108
H        6.76058722       0.62926206      -4.74322484
H        5.72255634       0.98193940      -6.12848085
H        5.72756034      -1.66076329      -4.55510641
H        6.59435017      -1.38718894      -6.06377865
H        4.52126354      -2.55024958      -6.57987408
H        4.43561676      -0.91770188      -7.25317045
H        1.28857184      -1.94989624      -3.22924348
H        2.24823588       0.16456154      -6.87576593
C       -0.03779819       0.05687249      -4.92443629
C       -1.10198918       0.61715293      -4.83488540
Br      -2.82269601       1.52307902      -4.69008918
C       -1.77694056      -1.77694056      -1.77694056
C       -2.79162778      -1.33133010      -2.59165752
C       -3.34575228      -2.48508797      -3.19929104
C       -2.63989562      -3.56868139      -2.71345980
O       -1.66822818      -3.12895629      -1.85204246
C       -2.78674339      -4.98963277      -2.94904777
O       -3.64164799      -5.47405275      -3.68472958
N       -1.88970314      -5.76469868      -2.24769513
C       -1.89479844      -7.20624672      -2.29405264
C       -1.15626296      -7.83225806      -1.11347217
C       -1.87675508      -7.65128124       0.22632400
N       -1.94822789      -6.27763832       0.68735109
N       -0.80915945      -5.59199889       0.92880470
C       -1.24299040      -4.38573365       1.31413439
C       -2.64031994      -4.30791110       1.29610977
C       -3.08022140      -5.53979318       0.89163264
H       -3.10138847      -0.30447026      -2.72696842
H       -4.17047489      -2.53661269      -3.89739161
H       -1.18585468      -5.27422943      -1.69802534
H       -1.40642821      -7.49536255      -3.23128335
H       -2.92969012      -7.56406624      -2.33922023
H       -0.13802427      -7.42823233      -1.05564687
H       -1.06033008      -8.90836832      -1.30224149
H       -1.35081554      -8.20954355       1.00947106
H       -2.89823603      -8.04341285       0.17056356
H       -0.52038173      -3.62410754       1.57657019
H       -4.06910548      -5.93980495       0.72034708
C       -3.42354732      -3.14524006       1.62527679
C       -4.07950026      -2.17150307       1.90095418
Br      -5.14012067      -0.59705271       2.34670119
C       -1.77694056       1.77694056       1.77694056
C       -1.85224427       3.14888287       1.71348825
C       -2.76973832       3.54097214       2.71942084
C       -3.19544229       2.38391954       3.34267499
O       -2.59521082       1.30217308       2.75184304
C       -4.09486723       2.17309230       4.45746440
O       -4.65789674       3.08190915       5.06062443
N       -4.24743721       0.84912981       4.80552994
C       -5.05504288       0.41945264       5.92060229
C       -4.70258325      -0.99014107       6.38955100
C       -3.32884110      -1.08767524       7.06054645
N       -2.20908039      -0.84208409       6.17151882
N       -2.01495489      -1.64406081       5.10145956
C       -0.92887277      -1.12780547       4.51352237
C       -0.45678187      -0.00087436       5.19621377
C       -1.29365937       0.16812374       6.26659883
H       -1.30889252       3.79024470       1.03368995
H       -3.08085931       4.54373192       2.97988796
H       -3.77855189       0.16008411       4.21947344
H       -6.09819016       0.44821478       5.58666917
H       -4.95305422       1.13899713       6.74092524
H       -4.76460198      -1.68875559       5.54605707
H       -5.45771544      -1.30620820       7.11943265
H       -3.18316849      -2.09638979       7.46410932
H       -3.25779886      -0.38384974       7.89713621
H       -0.54513196      -1.59125158       3.61403870
H       -1.32753498       0.90590309       7.05512527
C        0.67314697       0.80480838       4.81184919
C        1.61946238       1.47956768       4.48994385
Br       3.14957436       2.57059639       3.96945015
C        1.77694056      -1.77694056       1.77694056
C        2.80576330      -1.33376345       2.57508865
C        3.35375838      -2.48684352       3.18952940
C        2.63029573      -3.56773622       2.72400486
O        1.65390423      -3.12670442       1.86861829
C        2.76383607      -4.98752781       2.97406005
O        3.62154863      -5.47333469       3.70554700
N        1.85023174      -5.76018145       2.29168376
C        1.83965593      -7.20108242       2.35435944
C        1.08076511      -7.83188634       1.18934174
C        1.78797362      -7.67417406      -0.16043537
N        1.86963260      -6.30669886      -0.63781634
N        0.73566966      -5.61091592      -0.87423194
C        1.17862005      -4.41406422      -1.27809461
C        2.57685040      -4.35192793      -1.27665706
C        3.00745060      -5.58410691      -0.86317557
H        3.12855989      -0.30903442       2.69523286
H        4.18572975      -2.53988970       3.87885974
H        1.14573779      -5.26795259       1.74441906
H        1.35874998      -7.47408090       3.30024324
H        2.87090826      -7.57010897       2.39195936
H        0.06653897      -7.41699095       1.13837354
H        0.97489841      -8.90464801       1.39139347
H        1.24692914      -8.23518792      -0.93122902
H        2.80555178      -8.07723690      -0.11170335
H        0.46167905      -3.64727259      -1.54103255
H        3.99366030      -5.99338043      -0.69847737
C        3.36930099      -3.20200427      -1.62779467
C        4.03297836      -2.23894320      -1.92187242
Br       5.10608854      -0.68175491      -2.39737126
C       -0.00445707       0.01189536      -1.78238275
H       -0.66409135       0.67374010      -2.43557963
H        0.65740317      -0.63156657      -2.45157240
C       -0.90989263      -0.90692880      -0.91072765
C        0.90977584       0.90977584      -0.90977584
C       -0.00465871       1.77757030       0.00794375
H       -0.66225468       2.44313916      -0.64384735
H        0.64322798       2.43503045       0.67728295
C       -1.78241447       0.00034974      -0.00472694
H       -2.45427497      -0.65498947       0.64260836
H       -2.43311707       0.67328779      -0.65473579
C       -0.91132561       0.90220522       0.91563759
C       -0.01476271      -0.02253852       1.78660255
H       -0.67934791      -0.69751639       2.42135241
H        0.63392994       0.61504881       2.47327442
C        0.01484550      -1.77751727      -0.01636693
H        0.67870853      -2.42144646      -0.68295456
H       -0.62264859      -2.45592969       0.64226336
C        1.78714474       0.01002794       0.00389507
H        2.44202412       0.67113390       0.66197326
H        2.45385902      -0.65136977      -0.64189061
C        0.91606151      -0.90478549       0.90901405
