105
Properties=species:S:1:pos:R:3 pbc="F F F"
C        0.00000000       0.00000000       0.00000000
C        2.65363598       4.68635966      -2.43847822
C        3.17522269       3.52481135      -1.61025841
N        2.24355854       2.41281193      -1.55461298
C        1.64023039       1.91897344      -0.43835941
C        0.87065453       0.87065453      -0.87065453
C        1.05805453       0.78651538      -2.27015566
N        1.92359057       1.74628886      -2.68383190
C        0.45953924      -0.14822049      -3.24336747
O       -0.30163169      -1.04643669      -2.90852586
N        0.86959301       0.14776512      -4.52234339
C        0.45055831      -0.53557787      -5.62096839
N       -0.35529584      -1.56419703      -5.70264442
C       -0.50311022      -1.92107586      -7.03098096
C        0.20132131      -1.14160390      -7.91528160
S        1.07786847       0.06112857      -7.09666819
H        3.35908258       5.52230417      -2.40604947
H        1.68647334       5.03664831      -2.06293410
H        2.52072777       4.39728658      -3.48645205
H        3.36685480       3.85394172      -0.58303081
H        4.11342603       3.13908994      -2.02328838
H        1.80209347       2.34076860       0.54378404
H        1.50259750       0.93072163      -4.63303513
H       -1.14111851      -2.75901156      -7.28383907
C        0.19925853      -1.31653491      -9.34461532
C        0.19753095      -1.46303963     -10.54168231
Br       0.19473760      -1.69992537     -12.47723840
C       -4.69175670      -2.54309524      -2.54362192
C       -3.60015422      -1.63207020      -3.07806803
N       -2.44594180      -1.56500134      -2.20004031
C       -1.97681007      -0.45563609      -1.56511708
C       -0.87065453      -0.87065453      -0.87065453
C       -0.72816252      -2.25322225      -1.13334080
N       -1.70970687      -2.67285322      -1.97115125
C        0.28227900      -3.20528983      -0.63167539
O        1.20091568      -2.86236549       0.10099233
N        0.02832643      -4.47625306      -1.09177489
C        0.78492165      -5.55755103      -0.76331945
N        1.85620838      -5.62560238      -0.01375755
C        2.28445599      -6.93954424       0.04829337
C        1.51393160      -7.82723743      -0.66169317
S        0.22945694      -7.02956300      -1.43555917
H       -5.56331095      -2.51919281      -3.20493246
H       -5.00993891      -2.23352804      -1.54258879
H       -4.34556277      -3.58012108      -2.47878256
H       -3.98830169      -0.61492976      -3.20059587
H       -3.24331943      -1.97862568      -4.05385924
H       -2.45367077       0.51033849      -1.65574575
H       -0.77969286      -4.59592833      -1.69073306
H        3.16527882      -7.17993864       0.63095083
C        1.75814224      -9.24414167      -0.74133951
C        1.96266866     -10.43079897      -0.80804332
Br       2.29337058     -12.34952346      -0.91589774
C       -1.82771938       3.94281737       4.00793712
C       -1.91823953       3.89974984       2.49230308
N       -1.68514327       2.57172046       1.95411971
C       -0.67150712       2.20280917       1.12324695
C       -0.87065453       0.87065453       0.87065453
C       -2.03187204       0.49642716       1.58642637
N       -2.53667832       1.56714301       2.24989002
C       -2.69087559      -0.82082816       1.68463879
O       -2.28589201      -1.80443572       1.07900119
N       -3.77251211      -0.76508498       2.53227438
C       -4.54787918      -1.84196455       2.83003421
N       -4.46295529      -3.07340369       2.39359995
C       -5.46107469      -3.83229129       2.97801147
C       -6.27206144      -3.14207220       3.84500977
S       -5.80432366      -1.51218116       3.94352273
H       -1.95180046       4.96929809       4.36633767
H       -0.85871655       3.57062501       4.35671419
H       -2.60788162       3.32770849       4.46887630
H       -1.17523189       4.57489167       2.05370377
H       -2.90889783       4.21723740       2.14966911
H        0.08693962       2.89693436       0.78908330
H       -3.97504360       0.12967792       2.96163274
H       -5.53891580      -4.88329397       2.72808716
C       -7.37136423      -3.71878529       4.57475999
C       -8.29203032      -4.20178249       5.18592580
Br      -9.78066952      -4.98274813       6.17412923
C        2.40755743      -2.68836506       4.68255137
C        1.60530092      -3.20447615       3.50051538
N        1.55219661      -2.25667437       2.40211247
C        0.43439575      -1.66285545       1.90031205
C        0.87065453      -0.87065453       0.87065453
C        2.27400714      -1.03538506       0.80533336
N        2.68635409      -1.90926392       1.75809333
C        3.25197116      -0.40772011      -0.10500505
O        2.91911711       0.36206697      -0.99659266
N        4.53248018      -0.80276969       0.20445165
C        5.63477445      -0.35652176      -0.45534738
N        5.71963536       0.46630189      -1.47018191
C        7.05080922       0.63984230      -1.80417205
C        7.93392410      -0.06300971      -1.02193480
S        7.11074049      -0.97043196       0.15449278
H        2.37331434      -3.40707338       5.50704851
H        2.01180050      -1.73257221       5.04168304
H        3.45763221      -2.53504816       4.41178604
H        0.57626575      -3.41680678       3.81075480
H        2.03862667      -4.13019715       3.10698053
H       -0.55143839      -1.84617088       2.30434554
H        4.64101034      -1.44605247       0.97929144
H        7.30650345       1.29451758      -2.62827688
C        9.36555420      -0.03646283      -1.17467810
C       10.56454441      -0.01422983      -1.30260061
Br      12.50321017       0.02171906      -1.50944049
