126
Properties=species:S:1:pos:R:3 pbc="F F F"
C        3.56354000       5.59626369      -3.34838225
C        4.08512672       4.43471538      -2.52016243
N        3.15346256       3.32271595      -2.46451700
C        2.55013442       2.82887746      -1.34826344
C        1.78055856       1.78055856      -1.78055856
C        1.96795855       1.69641941      -3.18005968
N        2.83349460       2.65619289      -3.59373593
C        1.36944327       0.76168353      -4.15327149
O        0.60827234      -0.13653267      -3.81842989
N        1.77949704       1.05766914      -5.43224741
C        1.36046233       0.37432616      -6.53087241
N        0.55460818      -0.65429301      -6.61254845
C        0.40679380      -1.01117184      -7.94088498
C        1.11122533      -0.23169988      -8.82518563
S        1.98777250       0.97103259      -8.00657221
H        4.26898661       6.43220820      -3.31595349
H        2.59637737       5.94655233      -2.97283812
H        3.43063180       5.30719061      -4.39635608
H        4.27675882       4.76384574      -1.49293483
H        5.02333005       4.04899397      -2.93319240
H        2.71199749       3.25067263      -0.36611998
H        2.41250152       1.84062566      -5.54293915
H       -0.23121449      -1.84910754      -8.19374309
C        1.10916255      -0.40663089     -10.25451935
C        1.10743497      -0.55313560     -11.45158634
Br       1.10464162      -0.79002134     -13.38714242
C       -4.44383981      -2.81477896      -5.24956717
C       -3.01988277      -3.16587161      -4.85425014
N       -2.69245246      -2.74396329      -3.50427978
C       -1.73735168      -1.84094052      -3.14898312
C       -1.78055856      -1.78055856      -1.78055856
C       -2.79261394      -2.68018586      -1.37163784
N       -3.34711016      -3.28240228      -2.45391097
C       -3.27164339      -3.00023223      -0.01252267
O       -2.77903725      -2.50259717       0.99146487
N       -4.31456330      -3.89558947      -0.05926082
C       -4.96722566      -4.34459366       1.04615842
N       -4.75282054      -4.06775645       2.30771336
C       -5.67223198      -4.74918247       3.08490750
C       -6.55870595      -5.52313611       2.37713098
S       -6.25423285      -5.42041095       0.70926650
H       -4.62926604      -3.09756620      -6.29031605
H       -4.62932961      -1.74054205      -5.14589616
H       -5.17041709      -3.34176633      -4.62199506
H       -2.31213262      -2.68381433      -5.53759244
H       -2.85499156      -4.24755432      -4.90297054
H       -1.12277479      -1.32944458      -3.87657074
H       -4.60925349      -4.21135409      -0.97545874
H       -5.64014409      -4.63475535       4.16147837
C       -7.60695925      -6.31580933       2.96571757
C       -8.48487139      -6.97967316       3.45865884
Br      -9.90438106      -8.05308482       4.25570319
C       -5.57633450       3.23369774       3.69815370
C       -4.33928469       2.50568108       4.19503875
N       -3.28065174       2.45727005       3.20277373
C       -2.75555280       1.33655916       2.63516336
C       -1.78055856       1.78055856       1.78055856
C       -1.77033534       3.19131981       1.88278249
N       -2.70257764       3.60119528       2.77965049
C       -0.93139150       4.17823070       1.17477609
O       -0.05931607       3.84970818       0.38114530
N       -1.28008893       5.46070256       1.52862209
C       -0.68903570       6.56912879       1.00749641
N        0.28537828       6.66040899       0.13783291
C        0.55265626       7.99555229      -0.10638908
C       -0.23738872       8.87497487       0.59234749
S       -1.33693128       8.04365568       1.58479034
H       -6.36740155       3.19639053       4.45335622
H       -5.95772639       2.78131601       2.77672541
H       -5.35890173       4.28648759       3.48878916
H       -4.59455204       1.47482769       4.46415967
H       -3.92648311       2.99568827       5.08334504
H       -3.10757203       0.34358104       2.87763704
H       -2.03108093       5.56467164       2.20031376
H        1.33626424       8.25670634      -0.80702103
C       -0.14923958      10.30921360       0.49859783
C       -0.07541467      11.51038853       0.42008250
Br       0.04395396      13.45258681       0.29312984
C        3.19013656      -3.75385761       5.56419178
C        2.50325775      -4.23789935       4.29884742
N        2.45586881      -3.22202763       3.26279908
C        1.33447452      -2.66833731       2.72446349
C        1.78055856      -1.78055856       1.78055856
C        3.19321360      -1.84956652       1.80165751
N        3.60253534      -2.75864168       2.72224639
C        4.18223422      -1.09888773       1.00327633
O        3.85528254      -0.29253146       0.14235556
N        5.46430835      -1.43094479       1.37416045
C        6.57345732      -0.87012923       0.82207435
N        6.66664559       0.02445660      -0.12932536
C        8.00144605       0.30607785      -0.35886125
C        8.87863754      -0.39062435       0.43544919
S        8.04583664      -1.42817624       1.49136443
H        3.15243454      -4.52840709       6.33630667
H        2.70709691      -2.85260879       5.95606212
H        4.24241079      -3.51485276       5.37691494
H        1.47345253      -4.53701928       4.52306759
H        3.02384346      -5.10441645       3.87725651
H        0.33962954      -2.94225247       3.04690810
H        5.56674385      -2.11777650       2.11154598
H        8.26399968       1.03113162      -1.11944699
C       10.31189349      -0.26135870       0.38379883
C       11.51224535      -0.15309871       0.34054164
Br      13.45311279       0.02194853       0.27059844
C       -0.00445707       0.01189536      -1.78238275
H       -0.66409135       0.67374010      -2.43557963
H        0.65740317      -0.63156657      -2.45157240
C       -0.90989263      -0.90692880      -0.91072765
C        0.90977584       0.90977584      -0.90977584
C       -0.00465871       1.77757030       0.00794375
H       -0.66225468       2.44313916      -0.64384735
H        0.64322798       2.43503045       0.67728295
C       -1.78241447       0.00034974      -0.00472694
H       -2.45427497      -0.65498947       0.64260836
H       -2.43311707       0.67328779      -0.65473579
C       -0.91132561       0.90220522       0.91563759
C       -0.01476271      -0.02253852       1.78660255
H       -0.67934791      -0.69751639       2.42135241
H        0.63392994       0.61504881       2.47327442
C        0.01484550      -1.77751727      -0.01636693
H        0.67870853      -2.42144646      -0.68295456
H       -0.62264859      -2.45592969       0.64226336
C        1.78714474       0.01002794       0.00389507
H        2.44202412       0.67113390       0.66197326
H        2.45385902      -0.65136977      -0.64189061
C        0.91606151      -0.90478549       0.90901405
