97
Properties=species:S:1:pos:R:3 pbc="F F F"
C        0.00000000       0.00000000       0.00000000
C        2.65363598       4.68635966      -2.43847822
C        3.17522269       3.52481135      -1.61025841
N        2.24355854       2.41281193      -1.55461298
C        1.64023039       1.91897344      -0.43835941
C        0.87065453       0.87065453      -0.87065453
C        1.05805453       0.78651538      -2.27015566
N        1.92359057       1.74628886      -2.68383190
C        0.45953924      -0.14822049      -3.24336747
O       -0.30163169      -1.04643669      -2.90852586
N        0.86959301       0.14776512      -4.52234339
C        0.45055831      -0.53557787      -5.62096839
N       -0.35529584      -1.56419703      -5.70264442
C       -0.50311022      -1.92107586      -7.03098096
C        0.20132131      -1.14160390      -7.91528160
Br       0.19864817      -1.36829485      -9.76753762
S        1.07786847       0.06112857      -7.09666819
H        3.35908258       5.52230417      -2.40604947
H        1.68647334       5.03664831      -2.06293410
H        2.52072777       4.39728658      -3.48645205
H        3.36685480       3.85394172      -0.58303081
H        4.11342603       3.13908994      -2.02328838
H        1.80209347       2.34076860       0.54378404
H        1.50259750       0.93072163      -4.63303513
H       -1.14111851      -2.75901156      -7.28383907
C       -4.69159923      -2.52504273      -2.56183191
C       -3.58786212      -1.62778567      -3.09464465
N       -2.44054229      -1.56298006      -2.20746109
C       -1.96737783      -0.45225532      -1.57793009
C       -0.87065453      -0.87065453      -0.87065453
C       -0.73768244      -2.25654753      -1.12049560
N       -1.71567245      -2.67500038      -1.96303851
C        0.26040238      -3.21278724      -0.60230136
O        1.17572271      -2.87139798       0.13521779
N       -0.00043699      -4.48542512      -1.05383941
C        0.74418000      -5.57022070      -0.70990813
N        1.80851449      -5.64091753       0.04925148
C        2.22507440      -6.95783883       0.12596955
C        1.45304825      -7.84501062      -0.58303664
Br       1.75480121      -9.68456293      -0.66812923
S        0.18192885      -7.04315705      -1.37443703
H       -5.55733128      -2.49942225      -3.23068269
H       -5.01554769      -2.20433982      -1.56616824
H       -4.35476371      -3.56435454      -2.48534816
H       -3.96633193      -0.60849419      -3.22900121
H       -3.22578944      -1.98558513      -4.06442977
H       -2.43525625       0.51688983      -1.68071161
H       -0.80437944      -4.60337762      -1.65859719
H        3.09890059      -7.20068034       0.71807076
C       -1.82750128       3.95116155       3.99981103
C       -1.92365466       3.90192597       2.48471182
N       -1.68751973       2.57274070       1.95072302
C       -0.67566089       2.20452201       1.11738034
C       -0.87065453       0.87065453       0.87065453
C       -2.02767827       0.49473856       1.59230874
N       -2.53405134       1.56605556       2.25360444
C       -2.68123608      -0.82464198       1.69809213
O       -2.27479758      -1.80901185       1.09467175
N       -3.75982711      -0.76978264       2.54965704
C       -4.52990649      -1.84846970       2.85451204
N       -4.44192343      -3.08124231       2.42247043
C       -5.43487648      -3.84169333       3.01361172
C       -6.24518496      -3.15125730       3.88107135
Br      -7.66324716      -3.90042046       4.83506425
S       -5.78333828      -1.51922185       3.97154881
H       -1.95415222       4.97852915       4.35475485
H       -0.85574822       3.58402267       4.34628486
H       -2.60352520       3.33484690       4.46609432
H       -1.18492992       4.57821633       2.04068108
H       -2.91682921       4.21430160       2.14467353
H        0.07882946       2.90025572       0.77765177
H       -3.96414978       0.12584144       2.97636304
H       -5.50963544      -4.89393852       2.76801208
C        2.39833914      -2.69893117       4.68120356
C        1.60396594      -3.21324904       3.49307748
N        1.55153901      -2.26060888       2.39883556
C        0.43332378      -1.66964131       1.89459816
C        0.87065453      -0.87065453       0.87065453
C        2.27504465      -1.02858661       0.81109432
N        2.68703664      -1.90496690       1.76170780
C        3.25428168      -0.39218103      -0.09177649
O        2.92198165       0.38019315      -0.98133101
N        4.53516759      -0.78273705       0.22179687
C        5.63841637      -0.32833378      -0.43080133
N        5.72414594       0.49958076      -1.44141363
C        7.05602964       0.68082702      -1.76840774
C        7.93877343      -0.02156007      -0.98533450
Br       9.79472114       0.02234237      -1.17448782
S        7.11438272      -0.93823753       0.18304499
H        2.36362289      -3.42161395       5.50219938
H        1.99648784      -1.74665840       5.04290951
H        3.44893132      -2.53950205       4.41603304
H        0.57450456      -3.43177673       3.79754604
H        2.04340463      -4.13511695       3.09728277
H       -0.55350619      -1.85939047       2.29319375
H        4.64310072      -1.42910476       0.99414878
H        7.31248801       1.34050066      -2.58827836
