118
Properties=species:S:1:pos:R:3 pbc="F F F"
C        1.77743944       1.77743944      -1.77743944
C        3.07764652       1.49594056      -2.12086070
N        3.68202494       2.44165561      -2.93391114
C        2.82382049       3.40215288      -3.17097089
S        1.27996475       3.25215798      -2.45649168
N        3.00630226       4.55142611      -3.87605891
C        4.12193695       4.89568823      -4.57902440
O        4.22530385       6.07438186      -4.94306138
C        5.21509949       3.89615813      -4.88712863
N        4.78690350       2.85947753      -5.81022087
N        3.97473809       3.16004690      -6.84687280
C        3.83124519       2.00059610      -7.50463164
C        2.97775875       1.93431488      -8.71534397
C        4.58060583       0.97942115      -6.88909850
Br       4.71037753      -0.79679608      -7.45317554
C        5.19388197       1.55411985      -5.80813635
H        3.64212886       0.62500181      -1.81034283
H        2.28043121       5.25204523      -3.83374940
H        5.61780436       3.44475964      -3.97751748
H        6.03987485       4.42062388      -5.38400988
H        2.23831305       1.13259821      -8.62286637
H        3.58850482       1.74443353      -9.60353918
H        2.43368881       2.87162829      -8.87410838
H        5.86003124       1.16241306      -5.05326335
C       -1.77743944      -1.77743944      -1.77743944
C       -1.65158659      -3.13982917      -1.90303201
N       -2.56568301      -3.73157554      -2.76033314
C       -3.34283061      -2.80012045      -3.25399320
S       -3.04330473      -1.19652510      -2.74878458
N       -4.34112352      -2.92228358      -4.17038018
C       -4.80970962      -4.08758735      -4.69935259
O       -5.53268877      -4.00889025      -5.70116808
C       -4.44771252      -5.43545280      -4.11522092
N       -5.01425924      -5.64776744      -2.79457522
N       -6.26068635      -5.21348477      -2.50748667
C       -6.47208234      -5.61766339      -1.24672720
C       -7.75378125      -5.30271294      -0.57092341
C       -5.36133697      -6.33123946      -0.75654904
Br      -5.19743843      -7.10515392       0.93583535
C       -4.43998320      -6.34682275      -1.76933223
H       -0.91588188      -3.75833931      -1.40325230
H       -4.74039608      -2.07602057      -4.54980919
H       -3.36615231      -5.58639968      -4.08752948
H       -4.87046569      -6.21959263      -4.75445030
H       -7.57274088      -4.81123567       0.39019893
H       -8.32645698      -6.21811070      -0.39190984
H       -8.37184021      -4.63109660      -1.17648867
H       -3.45122101      -6.77444045      -1.85004619
C       -1.77743944       1.77743944       1.77743944
C       -1.61887801       3.13206012       1.94350964
N       -2.53999531       3.72555128       2.79204510
C       -3.35483631       2.80287760       3.23923035
S       -3.08437139       1.20570038       2.69854264
N       -4.37419127       2.92785598       4.13174003
C       -4.82589868       4.09104725       4.67970365
O       -5.57781573       4.00551768       5.65941369
C       -4.41236050       5.44357689       4.14244885
N       -4.93676745       5.70633712       2.81349732
N       -6.18599401       5.31405885       2.48160493
C       -6.35204221       5.75724782       1.22718291
C       -7.62272127       5.49551615       0.50918018
C       -5.20973539       6.45299404       0.78639604
Br      -4.97913669       7.26687518      -0.87925487
C       -4.31630750       6.41645961       1.82337107
H       -0.85360503       3.74331141       1.48055706
H       -4.80604547       2.08302633       4.47715404
H       -3.32681586       5.56560101       4.14766461
H       -4.83141731       6.22169698       4.79139432
H       -7.42862395       5.02501012      -0.45985644
H       -8.16574565       6.43065516       0.34007672
H       -8.27473653       4.82516981       1.07951915
H       -3.31909737       6.81460578       1.94200450
C        1.77743944      -1.77743944       1.77743944
C        3.15054223      -1.73843604       1.80546950
N        3.73968426      -2.63141947       2.68648796
C        2.79656135      -3.31397745       3.28640546
S        1.18536115      -2.95279997       2.85045328
N        2.92046476      -4.32637860       4.18694392
C        4.08380689      -4.77906187       4.73378081
O        4.04975870      -5.86400433       5.32898407
C        5.38178731      -4.01265288       4.60394605
N        5.36915784      -2.75560483       5.33183922
N        4.77070172      -2.67109756       6.53985851
C        4.99313745      -1.40912585       6.93420964
C        4.46128943      -0.93246238       8.23366579
C        5.75785868      -0.71300815       5.97825865
Br       6.33321811       1.06055202       6.09409091
C        5.99631218      -1.59843626       4.96138974
H        3.77966767      -1.08878830       1.20901753
H        2.08843196      -4.84101368       4.43678021
H        5.64452266      -3.83734824       3.55821058
H        6.18744353      -4.60983679       5.04722831
H        3.87902206      -0.01539762       8.09935795
H        5.28062382      -0.72636394       8.92948976
H        3.80538767      -1.67791757       8.69612023
H        6.53516055      -1.51140774       4.02913936
C       -0.00445707       0.01189536      -1.78238275
H       -0.66409135       0.67374010      -2.43557963
H        0.65740317      -0.63156657      -2.45157240
C       -0.90989263      -0.90692880      -0.91072765
C        0.90977584       0.90977584      -0.90977584
C       -0.00465871       1.77757030       0.00794375
H       -0.66225468       2.44313916      -0.64384735
H        0.64322798       2.43503045       0.67728295
C       -1.78241447       0.00034974      -0.00472694
H       -2.45427497      -0.65498947       0.64260836
H       -2.43311707       0.67328779      -0.65473579
C       -0.91132561       0.90220522       0.91563759
C       -0.01476271      -0.02253852       1.78660255
H       -0.67934791      -0.69751639       2.42135241
H        0.63392994       0.61504881       2.47327442
C        0.01484550      -1.77751727      -0.01636693
H        0.67870853      -2.42144646      -0.68295456
H       -0.62264859      -2.45592969       0.64226336
C        1.78714474       0.01002794       0.00389507
H        2.44202412       0.67113390       0.66197326
H        2.45385902      -0.65136977      -0.64189061
C        0.91606151      -0.90478549       0.90901405
