126
Properties=species:S:1:pos:R:3 pbc="F F F"
C        1.77743944       1.77743944      -1.77743944
C        3.07764652       1.49594056      -2.12086070
N        3.68202494       2.44165561      -2.93391114
C        2.82382049       3.40215288      -3.17097089
S        1.27996475       3.25215798      -2.45649168
N        3.00630226       4.55142611      -3.87605891
C        4.12193695       4.89568823      -4.57902440
O        4.22530385       6.07438186      -4.94306138
C        5.21509949       3.89615813      -4.88712863
N        4.78690350       2.85947753      -5.81022087
N        3.97473809       3.16004690      -6.84687280
C        3.83124519       2.00059610      -7.50463164
C        2.97775875       1.93431488      -8.71534397
C        4.58060583       0.97942115      -6.88909850
C        5.19388197       1.55411985      -5.80813635
H        3.64212886       0.62500181      -1.81034283
H        2.28043121       5.25204523      -3.83374940
H        5.61780436       3.44475964      -3.97751748
H        6.03987485       4.42062388      -5.38400988
H        2.23831305       1.13259821      -8.62286637
H        3.58850482       1.74443353      -9.60353918
H        2.43368881       2.87162829      -8.87410838
H        5.86003124       1.16241306      -5.05326335
C        4.68063613      -0.38971818      -7.32389896
C        4.76441151      -1.53637237      -7.68804434
Br       4.89986921      -3.39041521      -8.27683663
C       -1.77743944      -1.77743944      -1.77743944
C       -1.84623992      -3.14751073      -1.70069713
N       -2.71848385      -3.73723597      -2.60187187
C       -3.27146904      -2.79775671      -3.32771851
S       -2.79943867      -1.18967375      -2.99950198
N       -4.14641139      -2.92552554      -4.36185036
C       -4.71371735      -4.08564441      -4.79728781
O       -5.27696801      -4.06626647      -5.89951262
C       -4.64304791      -5.36406027      -3.99127806
N       -5.40530432      -5.29464688      -2.75665070
N       -6.59741420      -4.66029161      -2.72395198
C       -7.03333396      -4.83498172      -1.46815726
C       -8.32975073      -4.25327374      -1.04439313
C       -6.11982802      -5.60581602      -0.72348143
C       -5.08580119      -5.89824562      -1.57209137
H       -1.28671487      -3.77410187      -1.01665676
H       -4.35752990      -2.10202778      -4.90666816
H       -3.61068411      -5.65089657      -3.77850079
H       -5.09248236      -6.17387128      -4.57815498
H       -8.20448574      -3.64874054      -0.14055135
H       -9.05448739      -5.04643255      -0.83555758
H       -8.75192111      -3.60646292      -1.82104145
H       -4.17233247      -6.46033393      -1.44304125
C       -6.26027483      -6.00692037       0.65237830
C       -6.37789904      -6.34284526       1.80466082
Br      -6.56808744      -6.88600740       3.66780420
C       -1.77743944       1.77743944       1.77743944
C       -1.90485271       3.13951965       1.65007542
N       -2.76447549       3.73087132       2.56224488
C       -3.25000409       2.80079862       3.34614155
S       -2.72614822       1.20037340       3.06209278
N       -4.08833647       2.93623145       4.40921937
C       -4.68490658       4.09004325       4.82169974
O       -5.20339769       4.09351389       5.94583552
C       -4.69784381       5.33640379       3.96413864
N       -5.50431255       5.18709757       2.76519178
N       -6.67000212       4.50583484       2.80582083
C       -7.16140908       4.61213577       1.56292809
C       -8.44866350       3.96345490       1.21529920
C       -6.30981041       5.38715526       0.75215980
C       -5.25615985       5.75404337       1.54593496
H       -1.39843516       3.75915825       0.91988008
H       -4.24433438       2.12795293       4.99393853
H       -3.68710495       5.65447400       3.69850252
H       -5.15656419       6.15123111       4.53671331
H       -8.33433243       3.32801858       0.33142661
H       -9.21266683       4.71853473       1.00527596
H       -8.81350357       3.33276313       2.03315878
H       -4.37204974       6.34568633       1.35797157
C       -6.52011560       5.72617375      -0.63147245
C       -6.69624620       6.01010174      -1.79026446
Br      -6.98103447       6.46918928      -3.66393312
C        1.77743944      -1.77743944       1.77743944
C        3.14403433      -1.87552287       1.67489057
N        3.73482608      -2.73878323       2.58398239
C        2.79864059      -3.26402384       3.33427983
S        1.19163541      -2.78291497       3.01406402
N        2.91956934      -4.19658260       4.31763535
C        4.08576561      -4.71269650       4.79818747
O        4.01258017      -5.72918707       5.50097986
C        5.42886955      -4.09713601       4.47238069
N        5.60588064      -2.78367032       5.06705094
N        5.14339258      -2.52808089       6.31018433
C        5.51986939      -1.26427861       6.55232493
C        5.16872542      -0.61857175       7.84012042
C        6.24446343      -0.74027105       5.46439098
C        6.29602989      -1.73512115       4.52498714
H        3.76650465      -1.35070897       0.96025987
H        2.07336479      -4.59896853       4.69389252
H        5.59917305      -4.04636992       3.39453850
H        6.21694800      -4.72963163       4.89792899
H        4.66271198       0.33656061       7.66762625
H        6.06989399      -0.43350333       8.43308020
H        4.49732079      -1.24790470       8.43419999
H        6.74323356      -1.78936706       3.54310703
C        6.81864342       0.57716053       5.37333401
C        7.29951916       1.68050948       5.29707380
Br       8.07705456       3.46453141       5.17376748
C       -0.00445707       0.01189536      -1.78238275
H       -0.66409135       0.67374010      -2.43557963
H        0.65740317      -0.63156657      -2.45157240
C       -0.90989263      -0.90692880      -0.91072765
C        0.90977584       0.90977584      -0.90977584
C       -0.00465871       1.77757030       0.00794375
H       -0.66225468       2.44313916      -0.64384735
H        0.64322798       2.43503045       0.67728295
C       -1.78241447       0.00034974      -0.00472694
H       -2.45427497      -0.65498947       0.64260836
H       -2.43311707       0.67328779      -0.65473579
C       -0.91132561       0.90220522       0.91563759
C       -0.01476271      -0.02253852       1.78660255
H       -0.67934791      -0.69751639       2.42135241
H        0.63392994       0.61504881       2.47327442
C        0.01484550      -1.77751727      -0.01636693
H        0.67870853      -2.42144646      -0.68295456
H       -0.62264859      -2.45592969       0.64226336
C        1.78714474       0.01002794       0.00389507
H        2.44202412       0.67113390       0.66197326
H        2.45385902      -0.65136977      -0.64189061
C        0.91606151      -0.90478549       0.90901405
