105
Properties=species:S:1:pos:R:3 pbc="F F F"
C        0.00000000       0.00000000       0.00000000
C        0.86753542       0.86753542      -0.86753542
C        2.16774249       0.58603654      -1.21095667
N        2.77212092       1.53175158      -2.02400712
C        1.91391647       2.49224886      -2.26106686
S        0.37006072       2.34225395      -1.54658765
N        2.09639824       3.64152209      -2.96615489
C        3.21203292       3.98578420      -3.66912037
O        3.31539983       5.16447784      -4.03315736
C        4.30519546       2.98625410      -3.97722461
N        3.87699947       1.94957350      -4.90031685
N        3.06483407       2.25014288      -5.93696877
C        2.92134117       1.09069208      -6.59472762
C        2.06785472       1.02441085      -7.80543995
C        3.67070181       0.06951712      -5.97919447
C        4.28397795       0.64421583      -4.89823233
H        2.73222483      -0.28490222      -0.90043880
H        1.37052719       4.34214121      -2.92384538
H        4.70790033       2.53485562      -3.06761345
H        5.12997082       3.51071986      -4.47410586
H        1.32840902       0.22269419      -7.71296234
H        2.67860079       0.83452951      -8.69363515
H        1.52378478       1.96172427      -7.96420436
H        4.95012722       0.25250903      -4.14335932
C        3.77073211      -1.29962221      -6.41399493
C        3.85450748      -2.44627639      -6.77814032
Br       3.98996518      -4.30031923      -7.36693261
C       -0.86753542      -0.86753542      -0.86753542
C       -1.03168418      -2.22256628      -0.71048524
N       -1.88339295      -2.81538001      -1.62910666
C       -2.32665150      -1.89354460      -2.44703609
S       -1.77033742      -0.29970328      -2.18886164
N       -3.14214410      -2.03496452      -3.52696660
C       -3.75696403      -3.18388336      -3.92609011
O       -4.24806308      -3.20266204      -5.06230991
C       -3.82148636      -4.40794614      -3.03924167
N       -4.65274982      -4.20954552      -1.86459448
N       -5.79988697      -3.50152529      -1.95053345
C       -6.32366985      -3.56510461      -0.71798640
C       -7.60248919      -2.87709308      -0.41812325
C       -5.51136981      -4.34016114       0.13211755
C       -4.44825324      -4.75195246      -0.62622041
H       -0.55856306      -2.83598834       0.04678998
H       -3.26389932      -1.23788135      -4.13473310
H       -2.82565001      -4.74367400      -2.74104539
H       -4.28627464      -5.22537995      -3.60314196
H       -7.49385011      -2.22291012       0.45269468
H       -8.38981125      -3.60805519      -0.20889901
H       -7.93172525      -2.25821718      -1.25977098
H       -3.58386804      -5.35995260      -0.40217492
C       -5.76338415      -4.63962654       1.51790586
C       -5.97444616      -4.89042882       2.67850357
Br      -6.31571557      -5.29595489       4.55509191
C       -0.86753542       0.86753542       0.86753542
C       -0.74928552       2.23141318       0.98403699
N       -1.66174940       2.82282292       1.84330730
C       -2.43013662       1.88969133       2.34740424
S       -2.12385929       0.28488201       1.85016103
N       -3.42355018       2.01138440       3.26914062
C       -3.89604542       3.17703283       3.79385925
O       -4.61240101       3.10007773       4.80055629
C       -3.54590184       4.52347038       3.19930195
N       -4.12178974       4.72421153       1.88088856
N       -5.36725566       4.28057654       1.60411351
C       -5.58881869       4.67570937       0.34223280
C       -6.87265978       4.34880030      -0.32375456
C       -4.48548723       5.39302717      -0.15910100
C       -3.55808344       5.42045034       0.84789232
H       -0.02045559       2.85132109       0.47598474
H       -3.81529664       1.16504623       3.65617090
H       -2.46547790       4.68084150       3.16405000
H       -3.96955282       5.30892576       3.83631796
H       -6.69447366       3.85254521      -1.28295331
H       -7.45202669       5.25957008      -0.50483132
H       -7.48287679       3.67715557       0.28968105
H       -2.57149120       5.85458121       0.91992317
C       -4.37077917       5.98231322      -1.46798756
C       -4.27471116       6.47584029      -2.56418004
Br      -4.11937732       7.27383182      -4.33663058
C        0.86753542      -0.86753542       0.86753542
C        2.15238888      -0.56420557       1.24814124
N        2.76002979      -1.51468388       2.05316595
C        1.91959261      -2.50016734       2.24747224
S        0.38958645      -2.36908377       1.50023212
N        2.11290090      -3.66130828       2.92986604
C        3.21979775      -3.99620359       3.65093616
O        3.34263705      -5.18049038       3.98990760
C        4.28150272      -2.97919817       4.00797329
N        3.80755159      -1.97491374       4.94442450
N        2.97893871      -2.31873692       5.95427009
C        2.79277057      -1.17885602       6.63513427
C        1.91012121      -1.16111796       7.82646635
C        3.53175577      -0.12627101       6.06138662
C        4.18338285      -0.66079254       4.98225072
H        2.70309296       0.32670413       0.97137260
H        1.40503306      -4.37736109       2.85411962
H        4.69435736      -2.49713290       3.11887915
H        5.10675216      -3.49604936       4.51199502
H        1.15420368      -0.37478587       7.73507600
H        2.49544091      -0.97826002       8.73306452
H        1.38491023      -2.11429215       7.95051103
H        4.85736694      -0.23595184       4.25267679
C        3.58916902       1.23411705       6.53005286
C        3.63725262       2.37344205       6.92256083
Br       3.71499973       4.21563421       7.55721304
