129
Properties=species:S:1:pos:R:3 pbc="F F F"
C        0.00000000       0.00000000       0.00000000
O        1.76649457       0.44924064      -5.87711224
C        1.38259802       1.48660028      -5.34503634
C        2.40092940       2.43020454      -4.73965430
C        3.07607777       1.74996391      -3.56163914
N        2.18746354       1.62567842      -2.41924006
N        1.97226291       2.69765553      -1.62791545
C        1.19784086       2.22025418      -0.63982857
C        0.80857641       3.09264560       0.49526824
C        0.86877227       0.86877227      -0.86877227
C        1.50632850       0.51242674      -2.02661449
N        0.08439619       1.92328030      -5.19004836
C       -1.05542045       1.24450381      -5.64181167
C       -2.29167301       1.84732025      -5.41690238
C       -3.45319000       1.21130989      -5.85837232
C       -3.34821158      -0.01116897      -6.50630563
C       -2.08523341      -0.54529284      -6.68708770
N       -0.94885968       0.06043982      -6.26996424
H        1.94080304       3.38033258      -4.44729182
H        3.13756623       2.65675314      -5.51841305
H        3.93990797       2.33518096      -3.22839809
H        3.43313852       0.74520291      -3.81298005
H       -0.27931552       3.20119412       0.54152443
H        1.24477025       4.09211817       0.40212884
H        1.15559904       2.66386930       1.44078812
H        1.54664597      -0.41487686      -2.58271816
H       -0.07245179       2.78956675      -4.69434829
H       -2.36876358       2.80410575      -4.91055788
H       -4.42243258       1.67444086      -5.69318063
H       -1.93361428      -1.49879539      -7.18468105
C       -4.52154865      -0.70062628      -6.97697404
C       -5.50421844      -1.27804678      -7.37115882
Br      -7.09311239      -2.21168688      -8.00852229
O       -0.32506651      -1.93608529      -5.83169564
C       -0.45076248      -2.79729282      -4.96617934
C       -1.84024167      -3.20667080      -4.52387576
C       -2.51588808      -2.03001733      -3.84177541
N       -1.94378848      -1.75300494      -2.53558861
N       -2.29789628      -2.51823384      -1.48170376
C       -1.67453313      -1.94315903      -0.44023145
C       -1.88746893      -2.45454566       0.93606082
C       -0.86877227      -0.86877227      -0.86877227
C       -1.04833587      -0.77441095      -2.22262291
N        0.54835615      -3.46003207      -4.28604893
C        1.92279401      -3.27031449      -4.48337454
C        2.79309183      -4.04596677      -3.71967467
C        4.17053719      -3.89706416      -3.88996524
C        4.64019487      -2.97387754      -4.81324241
C        3.71190961      -2.23957140      -5.52889966
N        2.37338897      -2.37514042      -5.37979293
H       -1.80898098      -4.08687546      -3.87257100
H       -2.39668352      -3.49275613      -5.42329276
H       -3.57888486      -2.24132018      -3.68328199
H       -2.44508389      -1.11152718      -4.43471042
H       -0.94407016      -2.80335006       1.36706606
H       -2.59497726      -3.28948948       0.94970716
H       -2.29132167      -1.66440571       1.57704718
H       -0.64051290      -0.10524809      -2.96872628
H        0.28172714      -4.12216586      -3.57102453
H        2.42107717      -4.76752661      -2.99945061
H        4.85874292      -4.50025893      -3.30367289
H        4.01281629      -1.49990814      -6.26517954
C        6.05333195      -2.78890565      -5.01922540
C        7.23683425      -2.63399170      -5.19173616
Br       9.15045738      -2.38350893      -5.47067147
O       -0.78886955       1.35346695       5.95051095
C       -0.72612575       2.30742207       5.18068682
C       -2.00678125       2.91586057       4.64814642
C       -2.71698784       1.90006602       3.77062696
N       -2.03087863       1.69469373       2.50680967
N       -2.18216304       2.59916077       1.51651008
C       -1.50612318       2.06630586       0.48549456
C       -1.50707541       2.73681120      -0.83793284
C       -0.86877227       0.86877227       0.86877227
C       -1.21043638       0.65746890       2.17746444
N        0.40665549       2.91786471       4.68651562
C        1.72289703       2.55327852       5.00051353
C        2.74947756       3.29855912       4.42346804
C        4.07595475       2.97672881       4.71571814
C        4.34016797       1.91634656       5.57074649
C        3.26600210       1.22346039       6.09910317
N        1.97420626       1.52550278       5.83024786
H       -1.81144855       3.84874554       4.10823335
H       -2.63004920       3.17004127       5.51264195
H       -3.72769512       2.24645141       3.52934050
H       -2.80871682       0.92366948       4.25893518
H       -0.48992660       3.01789603      -1.12746847
H       -2.11920872       3.64405390      -0.82850304
H       -1.91383871       2.06772205      -1.60288056
H       -0.96110139      -0.12670103       2.88008691
H        0.29257734       3.67578812       4.02825247
H        2.53793539       4.12776973       3.75606571
H        4.88469206       3.55422360       4.27565736
H        3.40359126       0.38283546       6.77302718
C        5.69414844       1.55114571       5.89780184
C        6.82810709       1.24528999       6.17171071
Br       8.66162232       0.75074716       6.61459817
O        1.43462282      -0.71772874       5.94049588
C        1.15071376      -1.74009007       5.32343081
C        2.26200841      -2.57994456       4.72883527
C        2.96187531      -1.78621149       3.63959402
N        2.13751377      -1.64270495       2.45216332
N        2.03947285      -2.67278248       1.58557856
C        1.29694547      -2.18054039       0.58043774
C        1.03342228      -3.00025704      -0.62772554
C        0.86877227      -0.86877227       0.86877227
C        1.41132197      -0.54961281       2.08443495
N       -0.10515001      -2.24330307       5.05957178
C       -1.31124246      -1.66472143       5.47741606
C       -2.49054227      -2.32521780       5.13787408
C       -3.71489113      -1.78988355       5.54149979
C       -3.72765647      -0.60733495       6.26724661
C       -2.51467652      -0.01082875       6.56040923
N       -1.31877932      -0.51907623       6.18124746
H        1.88214407      -3.53536089       4.35092247
H        2.96342559      -2.81116740       5.53813942
H        3.87991995      -2.29580532       3.32776175
H        3.23804216      -0.77995009       3.97332923
H       -0.04051688      -3.17091502      -0.75004398
H        1.52636080      -3.97556719      -0.56716839
H        1.40854986      -2.49166554      -1.52153519
H        1.35858774       0.34089481       2.69679435
H       -0.17604113      -3.08391560       4.50358878
H       -2.47554530      -3.25049530       4.57095005
H       -4.64076040      -2.29898714       5.28696216
H       -2.45469634       0.91622604       7.12319376
C       -4.96896206      -0.02134320       6.70241797
C       -6.00855548       0.46942489       7.06687398
Br      -7.68949013       1.26295539       7.65616854
