122
Properties=species:S:1:pos:R:3 pbc="F F F"
C        1.79160144       1.79160144      -1.79160144
C        1.27579797       2.32203517      -2.97398635
C        2.08030881       3.12902818      -3.78469105
C        3.40726669       3.39292138      -3.41565097
C        3.90748871       2.87112016      -2.21431073
C        3.10166128       2.06690471      -1.40441861
C        4.31131859       4.24042449      -4.24946660
O        5.17173521       4.90118337      -3.68276959
N        4.10019237       4.15655908      -5.61556132
C        4.78925740       4.85199771      -6.63233634
C        5.79080200       5.79414625      -6.39508680
C        6.42997030       6.43784222      -7.46150388
C        6.06906868       6.14995304      -8.77895969
Br       6.98745161       7.06611081     -10.16409275
C        5.06249032       5.21410713      -9.02652889
Cl       4.54436423       4.79893696     -10.62259972
C        4.42852063       4.57003687      -7.95611309
H        0.24767314       2.12169987      -3.26603553
H        1.64475970       3.56470775      -4.67949328
H        4.92918612       3.08936953      -1.90725912
H        3.50433538       1.66630678      -0.47738443
H        3.42186154       3.47744156      -5.93423306
H        6.10505332       6.05369763      -5.38806488
H        7.21097860       7.16375355      -7.24516967
H        3.64757946       3.84430981      -8.16887021
C       -1.79160144      -1.79160144      -1.79160144
C       -2.62679536      -2.74142072      -1.20360340
C       -3.43494603      -3.55149885      -2.00758317
C       -3.39510030      -3.41774533      -3.40299340
C       -2.56702478      -2.44506310      -3.98083173
C       -1.76193762      -1.63504354      -3.17600344
C       -4.23045750      -4.26338633      -4.30736586
O       -4.61161887      -3.77919007      -5.36487924
N       -4.45882602      -5.55382481      -3.85966194
C       -5.21983316      -6.55821546      -4.49554284
C       -5.91534267      -6.37364791      -5.69104446
C       -6.64465365      -7.42454750      -6.26011524
C       -6.69117659      -8.67186776      -5.63493706
Br      -7.70111276     -10.04124051      -6.47530190
C       -6.00466019      -8.86434033      -4.43412583
Cl      -6.01036343     -10.37023726      -3.58530023
C       -5.27332111      -7.81068604      -3.87066344
H       -2.66288193      -2.85027265      -0.12225396
H       -4.10758941      -4.25553277      -1.52583856
H       -2.54628962      -2.31745964      -5.06206551
H       -1.12215651      -0.88746141      -3.63840867
H       -3.97988695      -5.83817252      -3.01547668
H       -5.91153480      -5.42137786      -6.21390316
H       -7.17224953      -7.25183663      -7.19581566
H       -4.74517387      -7.97992629      -2.93565931
C       -1.79160144       1.79160144       1.79160144
C       -3.15195119       1.91187067       1.50799763
C       -3.96253783       2.71913578       2.31235444
C       -3.40530773       3.41675996       3.39377134
C       -2.04077161       3.27108450       3.68106350
C       -1.23282100       2.46239434       2.87776926
C       -4.22412643       4.29882726       4.27825599
O       -3.89873778       4.40343064       5.45351976
N       -5.26981261       4.95342350       3.64907665
C       -6.20847165       5.82889999       4.23621982
C       -6.24620765       6.13727551       5.59655189
C       -7.20860657       7.02070737       6.10000247
C       -8.14921300       7.60136189       5.24740652
Br      -9.41658614       8.78892688       6.01214216
C       -8.12448540       7.29309211       3.88554884
Cl      -9.25216306       7.95745120       2.75628665
C       -7.15717767       6.41138347       3.38610945
H       -3.59065772       1.37352680       0.67122403
H       -5.02644221       2.76507713       2.09744140
H       -1.60320292       3.79014315       4.53246870
H       -0.17561037       2.36182063       3.11059559
H       -5.33922433       4.84878808       2.64552375
H       -5.53745543       5.70938971       6.29997068
H       -7.20947498       7.24602089       7.16440595
H       -7.15370898       6.18400292       2.32304758
C        1.79160144      -1.79160144       1.79160144
C        2.24868373      -1.30635659       3.01677917
C        3.05717127      -2.11024481       3.82661196
C        3.41833459      -3.39667940       3.40082504
C        2.93529587      -3.88075275       2.17687099
C        2.12581816      -3.07711761       1.37004884
C        4.28641140      -4.29216019       4.22263810
O        4.11104053      -5.50091319       4.14373446
N        5.25000767      -3.64465549       4.97764960
C        6.18959641      -4.23200621       5.85198884
C        6.25545803      -5.59861690       6.12596012
C        7.22245852      -6.10309471       7.00376317
C        8.13164479      -5.24348468       7.62285194
Br       9.41047231      -6.01077734       8.79640553
C        8.06894255      -3.87314973       7.36103407
Cl       9.14719692      -2.73285452       8.08584948
C        7.10184154      -3.37375648       6.47907258
H        1.97224414      -0.30993725       3.35322715
H        3.36720363      -1.72704104       4.79471607
H        3.19088353      -4.88689481       1.84803643
H        1.76158667      -3.46464124       0.42179868
H        5.34033172      -2.64577096       4.84743349
H        5.56895086      -6.30700157       5.67086340
H        7.25249325      -7.17400914       7.19339943
H        7.06902768      -2.30414374       6.28758806
C       -0.00445707       0.01189536      -1.78238275
H       -0.66409135       0.67374010      -2.43557963
H        0.65740317      -0.63156657      -2.45157240
C       -0.90989263      -0.90692880      -0.91072765
C        0.90977584       0.90977584      -0.90977584
C       -0.00465871       1.77757030       0.00794375
H       -0.66225468       2.44313916      -0.64384735
H        0.64322798       2.43503045       0.67728295
C       -1.78241447       0.00034974      -0.00472694
H       -2.45427497      -0.65498947       0.64260836
H       -2.43311707       0.67328779      -0.65473579
C       -0.91132561       0.90220522       0.91563759
C       -0.01476271      -0.02253852       1.78660255
H       -0.67934791      -0.69751639       2.42135241
H        0.63392994       0.61504881       2.47327442
C        0.01484550      -1.77751727      -0.01636693
H        0.67870853      -2.42144646      -0.68295456
H       -0.62264859      -2.45592969       0.64226336
C        1.78714474       0.01002794       0.00389507
H        2.44202412       0.67113390       0.66197326
H        2.45385902      -0.65136977      -0.64189061
C        0.91606151      -0.90478549       0.90901405
