101
Properties=species:S:1:pos:R:3 pbc="F F F"
C        0.00000000       0.00000000       0.00000000
C        0.88169742       0.88169742      -0.88169742
C        0.36589394       1.41213114      -2.06408233
C        1.17040479       2.21912415      -2.87478703
C        2.49736266       2.48301735      -2.50574694
C        2.99758469       1.96121614      -1.30440671
C        2.19175726       1.15700069      -0.49451458
C        3.40141457       3.33052047      -3.33956258
O        4.26183118       3.99127935      -2.77286557
N        3.19028835       3.24665505      -4.70565730
C        3.87935337       3.94209369      -5.72243232
C        4.88089797       4.88424223      -5.48518278
C        5.52006627       5.52793820      -6.55159985
C        5.15916465       5.24004901      -7.86905567
Br       6.07754759       6.15620679      -9.25418873
C        4.15258630       4.30420311      -8.11662487
Cl       3.63446021       3.88903293      -9.71269570
C        3.51861661       3.66013285      -7.04620906
H       -0.66223088       1.21179585      -2.35613150
H        0.73485568       2.65480373      -3.76958926
H        4.01928209       2.17946550      -0.99735510
H        2.59443135       0.75640276       0.43251960
H        2.51195752       2.56753753      -5.02432903
H        5.19514930       5.14379360      -4.47816085
H        6.30107458       6.25384953      -6.33526564
H        2.73767543       2.93440579      -7.25896619
C       -0.88169742      -0.88169742      -0.88169742
C       -2.23094563      -0.56747476      -1.04368702
C       -3.04194580      -1.37297211      -1.84939806
C       -2.50199026      -2.50203353      -2.48210316
C       -1.13962788      -2.79532100      -2.32825865
C       -0.33030271      -1.98823563      -1.52473418
C       -3.32578751      -3.40024938      -3.34546072
O       -2.77840513      -3.96323830      -4.28433268
N       -4.64860929      -3.53543012      -2.95856128
C       -5.65168181      -4.30023037      -3.59196720
C       -5.45794185      -5.02213490      -4.77024623
C       -6.50560655      -5.76075472      -5.33324305
C       -7.76236303      -5.78012354      -4.72578276
Br      -9.12532635      -6.80850383      -5.55411294
C       -7.96837201      -5.05465409      -3.55038818
Cl      -9.49055953      -5.01347872      -2.73215060
C       -6.91582679      -4.32012351      -2.98900822
H       -2.65610538       0.30666181      -0.55625290
H       -4.07958474      -1.08561709      -1.99404684
H       -0.70557800      -3.65643134      -2.83409336
H        0.72364393      -2.23006429      -1.41189415
H       -4.92085647      -3.09131215      -2.09165547
H       -4.49935729      -5.03649797      -5.28124849
H       -6.32259295      -6.31799826      -6.24959854
H       -7.09545982      -3.76206948      -2.07351810
C       -0.88169742       0.88169742       0.88169742
C       -0.61427839       2.24702215       0.98080688
C       -1.41867885       3.05764555       1.78799157
C       -2.48372231       2.49570056       2.50670409
C       -2.75510062       1.12581263       2.38229428
C       -1.95181510       0.31779267       1.57366476
C       -3.36738451       3.31449880       3.38961431
O       -4.53688106       2.97544498       3.51365006
N       -2.74350231       4.37659097       4.02250741
C       -3.33151476       5.31893887       4.89342576
C       -4.68815385       5.34322310       5.21894603
C       -5.19269414       6.31048412       6.09642607
C       -4.34501556       7.26941954       6.65383423
Br      -5.11085900       8.54220439       7.83487972
C       -2.98701882       7.25816249       6.32823297
Cl      -1.86407756       8.40877557       6.96333571
C       -2.48640313       6.28596441       5.45259097
H        0.20974664       2.68939466       0.42604845
H       -1.21703986       4.12472698       1.81748182
H       -3.59401704       0.68413939       2.91794627
H       -2.17215234      -0.74353604       1.48969821
H       -1.74236143       4.45750703       3.90395562
H       -5.38773352       4.62000275       4.80936748
H       -6.25404055       6.30062420       6.33552500
H       -1.42639085       6.29318041       5.21147615
C        0.88169742      -0.88169742       0.88169742
C        2.09472659      -1.36045486       0.38692597
C        2.90450048      -2.16901752       1.19079797
C        2.49064749      -2.50847999       2.48699948
C        1.27915390      -2.00380067       2.98025297
C        0.47240588      -1.19428322       2.17658343
C        3.31281769      -3.37562113       3.38305879
O        3.25156134      -3.18404107       4.59037370
N        4.04730349      -4.35685581       2.73844140
C        4.91715830      -5.30005017       3.32667091
C        5.20769498      -5.35217780       4.69045020
C        6.07961012      -6.32386791       5.19612630
C        6.67617394      -7.25163939       4.34045600
Br       7.84321676      -8.53556895       5.10915739
C        6.39770139      -7.20287265       2.97284023
Cl       7.09426274      -8.30457091       1.83735519
C        5.52169463      -6.23096490       2.47229899
H        2.42188835      -1.10090820      -0.61710008
H        3.86365237      -2.49618242       0.79941387
H        0.95999115      -2.24247339       3.99363815
H       -0.46615721      -0.81312682       2.57134490
H        3.90322345      -4.45808977       1.74251087
H        4.77036125      -4.65104777       5.39569474
H        6.28250337      -6.34282404       6.26486233
H        5.31700504      -6.20919010       1.40485227
