109
Properties=species:S:1:pos:R:3 pbc="F F F"
C        0.00000000       0.00000000       0.00000000
C        0.88169742       0.88169742      -0.88169742
C        0.36589394       1.41213114      -2.06408233
C        1.17040479       2.21912415      -2.87478703
C        2.49736266       2.48301735      -2.50574694
C        2.99758469       1.96121614      -1.30440671
C        2.19175726       1.15700069      -0.49451458
C        3.40141457       3.33052047      -3.33956258
O        4.26183118       3.99127935      -2.77286557
N        3.19028835       3.24665505      -4.70565730
C        3.87935337       3.94209369      -5.72243232
C        4.88089797       4.88424223      -5.48518278
C        5.52006627       5.52793820      -6.55159985
C        5.15916465       5.24004901      -7.86905567
C        4.15258630       4.30420311      -8.11662487
Cl       3.63446021       3.88903293      -9.71269570
C        3.51861661       3.66013285      -7.04620906
H       -0.66223088       1.21179585      -2.35613150
H        0.73485568       2.65480373      -3.76958926
H        4.01928209       2.17946550      -0.99735510
H        2.59443135       0.75640276       0.43251960
H        2.51195752       2.56753753      -5.02432903
H        5.19514930       5.14379360      -4.47816085
H        6.30107458       6.25384953      -6.33526564
H        2.73767543       2.93440579      -7.25896619
C        5.85603610       5.93523201      -8.92009838
C        6.43966594       6.51744777      -9.80034665
Br       7.38334603       7.45884141     -11.22363365
C       -0.88169742      -0.88169742      -0.88169742
C       -2.22943520      -0.56375472      -1.04891749
C       -3.04043464      -1.36923548      -1.85464585
C       -2.50205279      -2.50197094      -2.48210322
C       -1.14110953      -2.79904544      -2.32305257
C       -0.33177321      -1.99197830      -1.51952102
C       -3.32596014      -3.40031056      -3.34522692
O       -2.77740947      -3.96796596      -4.28060068
N       -4.65040809      -3.53012230      -2.96207030
C       -5.65389048      -4.29376150      -3.59622740
C       -5.45872779      -5.01997493      -4.77162026
C       -6.50694042      -5.75707249      -5.33559142
C       -7.76565120      -5.77058657      -4.73203156
C       -7.97306252      -5.04077885      -3.55957291
Cl      -9.49767246      -4.99225327      -2.74626311
C       -6.91997722      -4.30779089      -2.99719040
H       -2.65336894       0.31324109      -0.56556862
H       -4.07670519      -1.07908318      -2.00346030
H       -0.70818703      -3.66310094      -2.82481473
H        0.72104795      -2.23675596      -1.40260650
H       -4.92397460      -3.08242633      -2.09742317
H       -4.49859474      -5.03895339      -5.27955562
H       -6.32280749      -6.31776858      -6.24961367
H       -7.10072434      -3.74629765      -2.08402542
C       -8.80034518      -6.54965008      -5.36137123
C       -9.66690138      -7.20211578      -5.88844321
Br     -11.06804947      -8.25709761      -6.74067402
C       -0.88169742       0.88169742       0.88169742
C       -0.61714650       2.24784348       0.97711744
C       -1.42155476       3.05847315       1.78428806
C       -2.48369752       2.49575252       2.50667692
C       -2.75225452       1.12497707       2.38597595
C       -1.94897034       0.31694503       1.57735715
C       -3.36721459       3.31454939       3.38973364
O       -4.53565754       2.97313676       3.51718181
N       -2.74431036       4.37947781       4.01881253
C       -3.33248594       5.32246429       4.88892915
C       -4.68843788       5.34442127       5.21746383
C       -5.19318331       6.31252411       6.09389691
C       -4.34642082       7.27463088       6.64721763
C       -2.98914091       7.26570390       6.31856946
Cl      -1.86737557       8.42028491       6.94852837
C       -2.48830474       6.29265932       5.44399445
H        0.20462002       2.69081904       0.41949746
H       -1.22226567       4.12607129       1.81091170
H       -3.58895708       0.68262389       2.92452172
H       -2.16709365      -0.74506595       1.49628681
H       -1.74362551       4.46238619       3.89781238
H       -5.38730191       4.61869748       4.81110437
H       -6.25396197       6.30080841       6.33541938
H       -1.42885877       6.30172354       5.20046510
C       -4.92770407       8.24113467       7.54252775
C       -5.41452880       9.05058160       8.29234997
Br      -6.20168320      10.35938881       9.50474908
C        0.88169742      -0.88169742       0.88169742
C        2.09710227      -1.35627379       0.38873135
C        2.90688762      -2.16482199       1.19260635
C        2.49070011      -2.50847094       2.48695590
C        1.27677101      -2.00796537       2.97847116
C        0.47000868      -1.19845548       2.17480837
C        3.31279989      -3.37579290       3.38290483
O        3.24812272      -3.18732263       4.59053076
N        4.05126205      -4.35364620       2.73769245
C        4.92198512      -5.29614991       3.32574435
C        5.20931364      -5.35090927       4.69010007
C        6.08236869      -6.32170121       5.19553443
C        6.68329466      -7.24591158       4.33906309
C        6.40804782      -7.19447420       2.97089226
Cl       7.11008106      -8.29168005       1.83442772
C        5.53088808      -6.22348721       2.47058324
H        2.42608063      -1.09346818      -0.61385234
H        3.86779244      -2.48868080       0.80277543
H        0.95571758      -2.24990056       3.99048456
H       -0.47044804      -0.82056345       2.56819910
H        3.90986583      -4.45279098       1.74116728
H        4.76854002      -4.65258105       5.39598269
H        6.28269434      -6.34278045       6.26471497
H        5.32875605      -6.19959687       1.40269449
C        7.56980625      -8.21941948       4.92214076
C        8.31225971      -9.03473234       5.41046831
Br       9.51274416     -10.35302429       6.20005265
