146
Properties=species:S:1:pos:R:3 pbc="F F F"
C        1.77677588       1.77677588      -1.77677588
C        1.51638039       2.12433843      -3.10799106
N        2.47430994       2.91248028      -3.61061455
N        3.35404206       3.02858352      -2.59321243
C        4.58031584       3.77657630      -2.78700946
C        5.75866407       2.89644234      -3.19661836
C        5.55523502       2.24098142      -4.56111224
N        6.70702031       1.46197396      -4.95140803
C        6.91822334       0.16707906      -4.52054423
O        6.18518317      -0.39757794      -3.71547229
C        8.10753716      -0.45208347      -5.12938412
N        8.90620383       0.25691651      -5.96612451
N        9.86755220      -0.61635534      -6.32393178
C       10.91152826      -0.18973745      -7.22524332
C        9.72644363      -1.84942028      -5.76662574
C        8.60017107      -1.77108173      -4.99004214
Br       7.87491210      -3.16089422      -3.96909108
C        2.96343902       2.37968783      -1.45601536
H        0.68043706       1.84565449      -3.73508397
H        4.80078934       4.28190637      -1.83964793
H        4.38680098       4.55310381      -3.53564907
H        5.93242947       2.12648566      -2.43444885
H        6.66522108       3.51403030      -3.22503866
H        5.40192500       3.00025484      -5.33465068
H        4.68705556       1.57509959      -4.55386998
H        7.38510527       1.81683847      -5.62120000
H       11.61066667      -1.01355728      -7.38837334
H       11.43236502       0.65744422      -6.77207649
H       10.45025264       0.10267473      -8.17164771
H       10.41575323      -2.65797111      -5.96347595
H        3.55823037       2.38682383      -0.55404465
C       -1.77677588      -1.77677588      -1.77677588
C       -1.54790489      -2.07521878      -3.12558621
N       -2.49669045      -2.87740814      -3.62330618
N       -3.34003499      -3.05209739      -2.58370564
C       -4.54841733      -3.83203460      -2.76344966
C       -5.76535798      -2.97731966      -3.10904713
C       -5.62503256      -2.27447918      -4.45781694
N       -6.81174444      -1.52054705      -4.78811081
C       -7.04867950      -0.24667794      -4.31048920
O       -6.30823875       0.31594413      -3.51078290
C       -8.27488372       0.35304674      -4.86300082
N       -9.07748238      -0.35487828      -5.69688419
N      -10.07579284       0.49822719      -5.99756300
C      -11.13410763       0.06666602      -6.87959253
C       -9.95489182       1.71755183      -5.40630909
C       -8.80288430       1.65103358      -4.66728076
Br      -8.08858979       3.03119092      -3.62571009
C       -2.93382443      -2.42621696      -1.43910080
H       -0.74098780      -1.75138473      -3.76880299
H       -4.72346994      -4.37270413      -1.82616958
H       -4.35495663      -4.57889989      -3.54169734
H       -5.93846222      -2.23681027      -2.31809149
H       -6.65310528      -3.62196371      -3.12922105
H       -5.47304745      -3.00461230      -5.25917078
H       -4.77776483      -1.58214897      -4.45611133
H       -7.49942511      -1.87597479      -5.44774384
H      -11.86282828       0.87267811      -6.99533256
H      -11.61435528      -0.80990440      -6.43762604
H      -10.69412696      -0.18209553      -7.84835259
H      -10.67438814       2.50964703      -5.55651695
H       -3.49945561      -2.47956073      -0.52008250
C       -1.77677588       1.77677588       1.77677588
C       -2.86879642       2.53785913       1.34205432
N       -3.44300365       3.20224671       2.35215442
N       -2.68090228       2.87698493       3.41795079
C       -2.96568437       3.46768237       4.71053486
C       -2.14076981       4.72179774       4.98915722
C       -2.46568875       5.86355834       4.02808160
N       -1.71593189       7.05547868       4.34899173
C       -0.41705192       7.26121377       3.92758095
O        0.22733871       6.41877023       3.31164600
C        0.10068913       8.58968908       4.29583785
N       -0.65061174       9.44639725       5.03223585
N        0.12795434      10.53769242       5.16539056
C       -0.36422298      11.67162327       5.91118788
C        1.33641414      10.43034483       4.54971840
C        1.34623728       9.18310468       3.98226408
Br       2.74471312       8.44595862       2.98186347
C       -1.67647599       1.99855456       3.12411165
H       -3.27480403       2.64138838       0.34498311
H       -2.75298029       2.70293356       5.46642979
H       -4.03948855       3.68206400       4.75400131
H       -1.07081793       4.48393651       4.93860954
H       -2.33670009       5.04979375       6.01779621
H       -3.52721003       6.12496583       4.08465467
H       -2.23224590       5.58873302       2.99504620
H       -2.14213904       7.83145364       4.84955106
H        0.40049017      12.45186259       5.93411030
H       -0.59168333      11.34213381       6.92806858
H       -1.26429850      12.04412899       5.41614759
H        2.06747780      11.22597539       4.56276048
H       -0.98726174       1.63787630       3.87396080
C        1.77677588      -1.77677588       1.77677588
C        2.50439640      -2.89440408       1.34990940
N        3.18358420      -3.45728530       2.35653527
N        2.84886663      -2.70242007       3.42455131
C        3.35503680      -3.05188741       4.73697739
C        2.39063911      -3.92471010       5.53637556
C        2.16871307      -5.29320262       4.89541300
N        1.30014418      -6.12025384       5.70000428
C       -0.07712498      -6.03278224       5.65018938
O       -0.67000488      -5.19741078       4.97567162
C       -0.74561641      -7.04323811       6.48721610
N       -0.02166129      -7.89612947       7.25477668
N       -0.94879495      -8.66218436       7.86173923
C       -0.52457307      -9.69747291       8.77413429
C       -2.22874714      -8.35107086       7.52132536
C       -2.12717098      -7.30905381       6.63724865
Br      -3.55655409      -6.44031865       5.79934440
C        2.02018008      -1.65992686       3.11903525
H        2.57515762      -3.32548772       0.36053018
H        3.54037369      -2.11212163       5.26984832
H        4.32220785      -3.54961266       4.60373335
H        1.43017677      -3.40773529       5.65545192
H        2.79592423      -4.06149419       6.54687162
H        3.11787921      -5.82841035       4.79054097
H        1.71553410      -5.19624652       3.90424450
H        1.67103680      -6.85645393       6.29565301
H       -1.40221349     -10.20146728       9.18622894
H        0.05073161      -9.23253133       9.57862278
H        0.09182368     -10.41090861       8.22184279
H       -3.08119576      -8.88121475       7.92123907
H        1.67080303      -0.96206427       3.86623155
C       -0.00445707       0.01189536      -1.78238275
H       -0.66409135       0.67374010      -2.43557963
H        0.65740317      -0.63156657      -2.45157240
C       -0.90989263      -0.90692880      -0.91072765
C        0.90977584       0.90977584      -0.90977584
C       -0.00465871       1.77757030       0.00794375
H       -0.66225468       2.44313916      -0.64384735
H        0.64322798       2.43503045       0.67728295
C       -1.78241447       0.00034974      -0.00472694
H       -2.45427497      -0.65498947       0.64260836
H       -2.43311707       0.67328779      -0.65473579
C       -0.91132561       0.90220522       0.91563759
C       -0.01476271      -0.02253852       1.78660255
H       -0.67934791      -0.69751639       2.42135241
H        0.63392994       0.61504881       2.47327442
C        0.01484550      -1.77751727      -0.01636693
H        0.67870853      -2.42144646      -0.68295456
H       -0.62264859      -2.45592969       0.64226336
C        1.78714474       0.01002794       0.00389507
H        2.44202412       0.67113390       0.66197326
H        2.45385902      -0.65136977      -0.64189061
C        0.91606151      -0.90478549       0.90901405
