125
Properties=species:S:1:pos:R:3 pbc="F F F"
C        0.00000000       0.00000000       0.00000000
C        0.86687186       0.86687186      -0.86687186
C        0.60647636       1.21443440      -2.19808704
N        1.56440592       2.00257626      -2.70071052
N        2.44413804       2.11867950      -1.68330841
C        3.67041182       2.86667228      -1.87710543
C        4.84876005       1.98653831      -2.28671433
C        4.64533100       1.33107740      -3.65120821
N        5.79711628       0.55206994      -4.04150401
C        6.00831932      -0.74282496      -3.61064021
O        5.27527915      -1.30748196      -2.80556826
C        7.19763313      -1.36198750      -4.21948010
N        7.99629981      -0.65298751      -5.05622048
N        8.95764818      -1.52625936      -5.41402776
C       10.00162423      -1.09964147      -6.31533930
C        8.81653961      -2.75932431      -4.85672171
C        7.69026705      -2.68098576      -4.08013812
Br       6.96500808      -4.07079824      -3.05918705
C        2.05353499       1.46978380      -0.54611133
H       -0.22946696       0.93575047      -2.82517994
H        3.89088532       3.37200235      -0.92974391
H        3.47689696       3.64319979      -2.62574504
H        5.02252544       1.21658164      -1.52454482
H        5.75531706       2.60412628      -2.31513464
H        4.49202098       2.09035082      -4.42474666
H        3.77715153       0.66519557      -3.64396595
H        6.47520125       0.90693445      -4.71129597
H       10.70076265      -1.92346131      -6.47846932
H       10.52246099      -0.25245981      -5.86217246
H        9.54034861      -0.80722929      -7.26174369
H        9.50584920      -3.56787514      -5.05357192
H        2.64832634       1.47691981       0.35585938
C       -0.86687186      -0.86687186      -0.86687186
C       -0.55818207      -1.29793755      -2.16287818
N       -1.53014789      -2.06218073      -2.67536408
N       -2.46535982      -2.07885782      -1.70190829
C       -3.71847304      -2.77291075      -1.92280575
C       -4.82571887      -1.85725346      -2.43904037
C       -4.51848340      -1.28691618      -3.82221704
N       -5.60563019      -0.47242541      -4.31263464
C       -5.76885375       0.85272013      -3.96000094
O       -5.04848079       1.42168996      -3.14657462
C       -6.89088152       1.49801394      -4.66225814
N       -7.68281715       0.78673251      -5.50344814
N       -8.57665201       1.68729862      -5.95606318
C       -9.59484079       1.26663207      -6.88911334
C       -8.39825289       2.93965732      -5.45534145
C       -7.31867586       2.84589050      -4.61663405
Br      -6.57287527       4.24971351      -3.63023513
C       -2.09884939      -1.39071915      -0.57986159
H        0.32223907      -1.09601549      -2.75768703
H       -4.01349142      -3.21497945      -0.96416070
H       -3.52901719      -3.59720562      -2.61961898
H       -4.99651769      -1.03979050      -1.72734372
H       -5.76140699      -2.42864379      -2.48452719
H       -4.36693529      -2.09329455      -4.54688862
H       -3.61740886      -0.66654784      -3.80235635
H       -6.26684229      -0.82772680      -4.99886258
H      -10.23971188       2.11498192      -7.13104069
H      -10.18259937       0.47245381      -6.42202809
H       -9.10240833       0.90095502      -7.79340971
H       -9.03242658       3.77047645      -5.72959586
H       -2.73820484      -1.31937159       0.28818966
C       -0.86687186       0.86687186       0.86687186
C       -1.62957598       1.95762143       0.43180039
N       -2.29868178       2.52812900       1.44088192
N       -1.92257795       1.80589399       2.51765400
C       -2.40691940       2.17407209       3.83319804
C       -1.44513905       3.08668901       4.59018464
C       -1.26942371       4.44466916       3.91352374
N       -0.40224729       5.30949436       4.67894859
C        0.97519892       5.25202088       4.59931260
O        1.57183804       4.41488973       3.93031376
C        1.63889719       6.29638598       5.39763694
N        0.91294770       7.15021755       6.16226293
N        1.83560453       7.95083454       6.73018657
C        1.40828827       8.99708355       7.62852678
C        3.11438921       7.66092374       6.36740248
C        3.01697692       6.59672972       5.50966662
Br       4.44676361       5.74136828       4.65879222
C       -1.07713630       0.77560052       2.21669330
H       -1.73260424       2.36402188      -0.56516267
H       -2.55841171       1.24292365       4.39129622
H       -3.38809482       2.64661677       3.71113020
H       -0.47054402       2.59442595       4.69868194
H       -1.83055258       3.23759698       5.60642842
H       -2.23282893       4.95573893       3.81855060
H       -0.83662511       4.33509657       2.91459138
H       -0.77650476       6.05069683       5.26623009
H        2.28313197       9.53015659       8.00874604
H        0.86219476       8.53798046       8.45638795
H        0.76325640       9.68346546       7.07465395
H        3.96317497       8.21928228       6.73543868
H       -0.69494293       0.10325674       2.97118710
C        0.86687186      -0.86687186       0.86687186
C        1.48402489      -2.06085819       0.47411472
N        2.19492971      -2.60211079       1.47065221
N        1.99078995      -1.75420185       2.50113414
C        2.56626302      -2.04976946       3.79815704
C        1.60563434      -2.79386623       4.72251212
C        1.24535691      -4.18288767       4.19937203
N        0.38356369      -4.88806184       5.11906470
C       -0.98456762      -4.70417040       5.15653179
O       -1.56694401      -3.87553803       4.46477143
C       -1.65735300      -5.60420071       6.10827802
N       -0.93896838      -6.45349540       6.88500576
N       -1.86928197      -7.10711605       7.60758250
C       -1.45097290      -8.10626783       8.56202713
C       -3.14656112      -6.72748152       7.33301661
C       -3.03916289      -5.75797957       6.37060273
Br      -4.46352147      -4.84635196       5.57056640
C        1.21467707      -0.67728984       2.17746322
H        1.45319790      -2.56204902      -0.48378347
H        2.85319184      -1.09201582       4.24742392
H        3.48518632      -2.62444877       3.63620670
H        0.69366084      -2.20148186       4.86850920
H        2.07317284      -2.89093915       5.71046598
H        2.14588748      -4.79162916       4.06960182
H        0.72886773      -4.12064896       3.23679636
H        0.74603947      -5.60720798       5.74018421
H       -2.32844855      -8.51594482       9.06827439
H       -0.78844395      -7.63094353       9.28967407
H       -0.92620922      -8.89847786       8.02259437
H       -4.00162975      -7.16583774       7.82733799
H        0.96873693       0.09320938       2.89385922
