133
Properties=species:S:1:pos:R:3 pbc="F F F"
C        0.00000000       0.00000000       0.00000000
C        0.86687186       0.86687186      -0.86687186
C        0.60647636       1.21443440      -2.19808704
N        1.56440592       2.00257626      -2.70071052
N        2.44413804       2.11867950      -1.68330841
C        3.67041182       2.86667228      -1.87710543
C        4.84876005       1.98653831      -2.28671433
C        4.64533100       1.33107740      -3.65120821
N        5.79711628       0.55206994      -4.04150401
C        6.00831932      -0.74282496      -3.61064021
O        5.27527915      -1.30748196      -2.80556826
C        7.19763313      -1.36198750      -4.21948010
N        7.99629981      -0.65298751      -5.05622048
N        8.95764818      -1.52625936      -5.41402776
C       10.00162423      -1.09964147      -6.31533930
C        8.81653961      -2.75932431      -4.85672171
C        7.69026705      -2.68098576      -4.08013812
C        2.05353499       1.46978380      -0.54611133
H       -0.22946696       0.93575047      -2.82517994
H        3.89088532       3.37200235      -0.92974391
H        3.47689696       3.64319979      -2.62574504
H        5.02252544       1.21658164      -1.52454482
H        5.75531706       2.60412628      -2.31513464
H        4.49202098       2.09035082      -4.42474666
H        3.77715153       0.66519557      -3.64396595
H        6.47520125       0.90693445      -4.71129597
H       10.70076265      -1.92346131      -6.47846932
H       10.52246099      -0.25245981      -5.86217246
H        9.54034861      -0.80722929      -7.26174369
H        9.50584920      -3.56787514      -5.05357192
H        2.64832634       1.47691981       0.35585938
C        7.13201989      -3.75075379      -3.29429051
C        6.66448790      -4.64668453      -2.63614314
Br       5.90852821      -6.09532874      -1.57197451
C       -0.86687186      -0.86687186      -0.86687186
C       -0.49944149      -2.09975684      -1.41979947
N       -1.49085744      -2.63314341      -2.14369185
N       -2.47110711      -1.70808420      -2.06693463
C       -3.70854576      -1.91213811      -2.79350567
C       -3.71289401      -1.24322322      -4.16589546
C       -2.67413532      -1.84032111      -5.11316018
N       -2.73819118      -1.23134767      -6.42115138
C       -2.11690661      -0.03569878      -6.72352918
O       -1.52476306       0.63993505      -5.88853744
C       -2.24324668       0.33198816      -8.14386721
N       -2.96697824      -0.43591126      -8.99664328
N       -2.85486638       0.19244196     -10.18299215
C       -3.51752306      -0.35856122     -11.34123779
C       -2.09378541       1.31930080     -10.13945241
C       -1.68784133       1.43413703      -8.83571511
C       -2.14938656      -0.63416772      -1.28587585
H        0.43599178      -2.63545087      -1.33200437
H       -4.51520091      -1.50328669      -2.17414398
H       -3.87543373      -2.99187059      -2.87853747
H       -3.54246801      -0.16485388      -4.05633002
H       -4.71077109      -1.35553694      -4.60826994
H       -2.84641222      -2.91296794      -5.24773830
H       -1.66016121      -1.69914103      -4.72701081
H       -3.19455457      -1.69744969      -7.20142741
H       -3.33719606       0.28625117     -12.20482577
H       -4.58889966      -0.41116127     -11.13211272
H       -3.11158654      -1.35580423     -11.52747224
H       -1.90657866       1.92768377     -11.01265110
H       -2.83377265       0.18549459      -1.12110871
C       -0.85002387       2.47681874      -8.30235148
C       -0.14835174       3.35006466      -7.85565944
Br       0.98619274       4.76202947      -7.13339619
C       -0.86687186       0.86687186       0.86687186
C       -0.86136723       0.89070838       2.26692218
N       -1.74561249       1.77127118       2.75080903
N       -2.32878000       2.27499943       1.64234652
C       -3.40532597       3.23677583       1.77208773
C       -4.78912909       2.59257165       1.74031195
C       -5.03245433       1.66558677       2.92957551
N       -6.36759878       1.11540221       2.90768924
C       -6.71071201       0.00794861       2.15747395
O       -5.92966536      -0.55088996       1.39459005
C       -8.10247468      -0.42160615       2.37425720
N       -8.92663980       0.28434837       3.18854461
N      -10.08996979      -0.39384246       3.14928924
C      -11.21588862       0.08717069       3.91426276
C      -10.05590405      -1.50018938       2.35822234
C       -8.78623463      -1.54126606       1.84445084
C       -1.81360656       1.77674505       0.47907851
H       -0.26001935       0.31452138       2.95692272
H       -3.30269311       3.94668180       0.94325666
H       -3.24909830       3.79416311       2.70258037
H       -4.92214551       2.03941058       0.80209582
H       -5.54640625       3.38667374       1.74149799
H       -4.92358913       2.21116019       3.87236914
H       -4.32571304       0.83030068       2.93029934
H       -7.10394082       1.48638377       3.50310709
H      -12.07460325      -0.56819288       3.74936028
H      -11.45072051       1.10097148       3.58048166
H      -10.93983709       0.08352921       4.97149672
H      -10.91018848      -2.14952317       2.23088068
H       -2.17166194       2.08903343      -0.49130860
C       -8.27058390      -2.54559798       0.95057069
C       -7.83872641      -3.38672596       0.20194607
Br      -7.14044938      -4.74675877      -1.00851664
C        0.86687186      -0.86687186       0.86687186
C        0.41277260      -1.82994356       1.77628165
N        1.42795301      -2.44137510       2.39836459
N        2.52121675      -1.82980027       1.89510892
C        3.83577970      -2.19139519       2.38701465
C        4.32167373      -1.28496098       3.51537798
C        3.45936319      -1.39721833       4.77103508
N        3.97344797      -0.57553310       5.84170916
C        3.70124741       0.77406291       5.94895007
O        3.06422115       1.39665573       5.10580003
C        4.25451224       1.37406526       7.17467875
N        5.00213298       0.63434018       8.03173998
N        5.32252017       1.49471100       9.01760739
C        6.13317491       1.03683805      10.12098521
C        4.81654099       2.74547151       8.84286753
C        4.12472121       2.69635633       7.66105453
C        2.23345195      -0.88805233       0.94792584
H       -0.60193305      -2.11728991       2.01610659
H        4.52392380      -2.13286454       1.53584323
H        3.79935097      -3.23858468       2.70790614
H        4.34826031      -0.24307093       3.17232067
H        5.35579400      -1.55582149       3.76296249
H        3.44201535      -2.42915955       5.13594356
H        2.43003865      -1.08371196       4.57256244
H        4.50999953      -0.97633388       6.60709827
H        6.31045011       1.86553461      10.81085516
H        7.08359520       0.67356035       9.72213880
H        5.59677510       0.23321085      10.63129876
H        4.98245657       3.54335724       9.55244666
H        3.00331014      -0.31880472       0.44727191
C        3.40507617       3.78894852       7.05942896
C        2.80237345       4.70399447       6.55556754
Br       1.82785412       6.18354639       5.74086625
