146
Properties=species:S:1:pos:R:3 pbc="F F F"
C        1.77639484       1.77639484      -1.77639484
C        2.43749829       1.36507621      -2.93869849
N        3.16420316       2.35484837      -3.47305122
N        2.91838457       3.40420605      -2.65488520
C        3.53355113       4.68943061      -2.92541941
C        4.82382005       4.93506422      -2.14215757
C        5.99050350       4.04562344      -2.57793568
N        5.82767647       2.66356064      -2.18803243
C        6.04720612       2.22922899      -0.90146386
O        6.48001192       2.98522640      -0.03530307
C        5.67593269       0.86007423      -0.63616388
C        5.52954541      -0.24364635      -1.45326710
Br       5.81944076      -0.43778932      -3.29387964
C        5.13108946      -1.30351385      -0.62969045
N        5.03795169      -0.92967235       0.64614036
N        5.40172388       0.37201497       0.62518859
C        5.44550376       1.09930830       1.87498226
C        2.09065058       3.09853488      -1.61204902
H        2.43939320       0.39273273      -3.41405967
H        2.79167366       5.45356949      -2.66447928
H        3.70656781       4.76019960      -4.00549063
H        4.63754629       4.82005551      -1.06760455
H        5.11790359       5.97940100      -2.30395762
H        6.91643449       4.42055708      -2.12752292
H        6.11338703       4.06942707      -3.66560479
H        5.26974247       2.07271430      -2.80278865
H        4.91173836      -2.33038474      -0.89273469
H        4.84726065       2.00793971       1.77614065
H        6.48908550       1.33232504       2.09963473
H        5.02792138       0.47731828       2.67149601
H        1.81032934       3.82735958      -0.86522991
C       -1.77639484      -1.77639484      -1.77639484
C       -2.65441163      -1.32105238      -2.76580897
N       -3.31737775      -2.33074123      -3.34398376
N       -2.81459038      -3.42893752      -2.73394793
C       -3.28945222      -4.74580366      -3.11314526
C       -4.40237998      -5.28507561      -2.21358625
C       -5.72828117      -4.53347666      -2.35230479
N       -5.69116902      -3.20604605      -1.78205446
C       -5.76810721      -2.98286304      -0.42692872
O       -5.96139508      -3.90292355       0.36377725
C       -5.54399654      -1.62008673      -0.00808753
C       -5.66953667      -0.40927274      -0.66035676
Br      -6.25827173      -0.02126770      -2.39599164
C       -5.29347278       0.58129426       0.25491246
N       -4.95956803       0.06158887       1.43584019
N       -5.14812356      -1.26605308       1.26562639
C       -4.90587030      -2.14937115       2.38541164
C       -1.88564356      -3.14090292      -1.77468800
H       -2.85611465      -0.30633101      -3.08373995
H       -2.42269964      -5.41612821      -3.07089458
H       -3.61350697      -4.69949817      -4.15925290
H       -4.07198650      -5.28530524      -1.16791460
H       -4.57783882      -6.33152755      -2.49189585
H       -6.51779269      -5.10042132      -1.84630047
H       -6.01054482      -4.43255757      -3.40531649
H       -5.31546366      -2.46181975      -2.36796201
H       -5.25338353       1.65510751       0.12418771
H       -4.21543038      -2.93577675       2.07214741
H       -5.86353143      -2.56547749       2.70723310
H       -4.45765328      -1.58131734       3.20522696
H       -1.40198576      -3.91048001      -1.19045306
C       -1.77639484       1.77639484       1.77639484
C       -2.30932449       3.01807039       1.41387811
N       -3.01123004       3.56778015       2.41309256
N       -2.94691419       2.63721817       3.39334345
C       -3.61665768       2.87395550       4.65778797
C       -2.70627933       3.45344918       5.74131332
C       -2.25631068       4.89034257       5.46740938
N       -1.30203877       4.99054324       4.38668752
C        0.02459521       4.66143981       4.54105438
O        0.48332898       4.34736679       5.63650356
C        0.80715918       4.65083238       3.32849761
C        0.64978496       5.27983064       2.10912049
Br      -0.65550817       6.49165593       1.52836698
C        1.72224475       4.87363230       1.30587851
N        2.54106760       4.04718353       1.95602305
N        1.98779932       3.95078944       3.18556014
C        2.65167056       3.13921025       4.18229013
C       -2.20498235       1.54124882       3.05500330
H       -2.20948943       3.55642807       0.48026810
H       -4.01480895       1.90705014       4.98786335
H       -4.47372364       3.53042774       4.46810666
H       -1.83573392       2.80263285       5.88683958
H       -3.26696175       3.45015731       6.68414315
H       -1.79246728       5.30055056       6.37149664
H       -3.11160148       5.52446691       5.21235050
H       -1.67794401       5.02701752       3.44028389
H        1.95302852       5.14375625       0.28336058
H        1.93431208       2.42336276       4.59000904
H        3.03958250       3.80101330       4.96034502
H        3.47814227       2.59590208       3.71598384
H       -2.04942915       0.71716684       3.73632284
C        1.77639484      -1.77639484       1.77639484
C        1.75217471      -3.17466411       1.81443416
N        2.61612487      -3.66176154       2.71421633
N        3.21263598      -2.55357070       3.21126914
C        4.24199946      -2.68149164       4.22491004
C        3.72546462      -2.52033531       5.65524191
C        2.82581520      -3.66757810       6.12066932
N        1.52945814      -3.66796364       5.48184774
C        0.52546653      -2.80266900       5.84976343
O        0.65431163      -2.04116574       6.80506400
C       -0.64376524      -2.81211623       5.00381981
C       -1.17242391      -3.76084035       4.15074973
Br      -0.60282940      -5.50514891       3.77321156
C       -2.32007224      -3.19522016       3.58211814
N       -2.54369161      -1.96431582       4.04151476
N       -1.53807382      -1.76427199       4.92235208
C       -1.49070685      -0.51324325       5.64729341
C        2.73136826      -1.39144178       2.67842444
H        1.13956227      -3.86160798       1.24501534
H        4.98941576      -1.90776874       4.01253795
H        4.73180211      -3.65248942       4.08796651
H        3.20451589      -1.56101514       5.75967532
H        4.59609479      -2.48362302       6.32154440
H        2.67304166      -3.58857702       7.20289580
H        3.29384109      -4.63641030       5.91816749
H        1.46516007      -4.11275474       4.56733060
H       -3.00876915      -3.61986613       2.86299133
H       -0.50280622      -0.06595540       5.51591054
H       -1.69757479      -0.71913650       6.70021411
H       -2.24991313       0.16564506       5.24930183
H        3.09821582      -0.42179422       2.98290879
C       -0.00445707       0.01189536      -1.78238275
H       -0.66409135       0.67374010      -2.43557963
H        0.65740317      -0.63156657      -2.45157240
C       -0.90989263      -0.90692880      -0.91072765
C        0.90977584       0.90977584      -0.90977584
C       -0.00465871       1.77757030       0.00794375
H       -0.66225468       2.44313916      -0.64384735
H        0.64322798       2.43503045       0.67728295
C       -1.78241447       0.00034974      -0.00472694
H       -2.45427497      -0.65498947       0.64260836
H       -2.43311707       0.67328779      -0.65473579
C       -0.91132561       0.90220522       0.91563759
C       -0.01476271      -0.02253852       1.78660255
H       -0.67934791      -0.69751639       2.42135241
H        0.63392994       0.61504881       2.47327442
C        0.01484550      -1.77751727      -0.01636693
H        0.67870853      -2.42144646      -0.68295456
H       -0.62264859      -2.45592969       0.64226336
C        1.78714474       0.01002794       0.00389507
H        2.44202412       0.67113390       0.66197326
H        2.45385902      -0.65136977      -0.64189061
C        0.91606151      -0.90478549       0.90901405
