154
Properties=species:S:1:pos:R:3 pbc="F F F"
C        1.77639484       1.77639484      -1.77639484
C        2.43749829       1.36507621      -2.93869849
N        3.16420316       2.35484837      -3.47305122
N        2.91838457       3.40420605      -2.65488520
C        3.53355113       4.68943061      -2.92541941
C        4.82382005       4.93506422      -2.14215757
C        5.99050350       4.04562344      -2.57793568
N        5.82767647       2.66356064      -2.18803243
C        6.04720612       2.22922899      -0.90146386
O        6.48001192       2.98522640      -0.03530307
C        5.67593269       0.86007423      -0.63616388
C        5.52954541      -0.24364635      -1.45326710
C        5.13108946      -1.30351385      -0.62969045
N        5.03795169      -0.92967235       0.64614036
N        5.40172388       0.37201497       0.62518859
C        5.44550376       1.09930830       1.87498226
C        2.09065058       3.09853488      -1.61204902
H        2.43939320       0.39273273      -3.41405967
H        2.79167366       5.45356949      -2.66447928
H        3.70656781       4.76019960      -4.00549063
H        4.63754629       4.82005551      -1.06760455
H        5.11790359       5.97940100      -2.30395762
H        6.91643449       4.42055708      -2.12752292
H        6.11338703       4.06942707      -3.66560479
H        5.26974247       2.07271430      -2.80278865
H        4.91173836      -2.33038474      -0.89273469
H        4.84726065       2.00793971       1.77614065
H        6.48908550       1.33232504       2.09963473
H        5.02792138       0.47731828       2.67149601
H        1.81032934       3.82735958      -0.86522991
C        5.75237653      -0.39287639      -2.86807334
C        5.93899758      -0.51785655      -4.05297356
Br       6.24074805      -0.71993891      -5.96885701
C       -1.77639484      -1.77639484      -1.77639484
C       -2.49098771      -1.34948242      -2.90080286
N       -3.20215691      -2.34541311      -3.44453273
N       -2.89288512      -3.41249559      -2.67209511
C       -3.47353594      -4.70852153      -2.96634367
C       -4.72678716      -5.02508697      -2.14916771
C       -5.93716642      -4.16262558      -2.51427061
N       -5.80742825      -2.78962434      -2.08221695
C       -5.99654358      -2.40669083      -0.77466456
O       -6.37329413      -3.20597888       0.07873164
C       -5.66250400      -1.03514186      -0.47452495
C       -5.58181978       0.09984869      -1.25719508
C       -5.19080975       1.14464988      -0.41110619
N       -5.04082790       0.73159502       0.84709391
N       -5.36114248      -0.58051913       0.79311135
C       -5.33694132      -1.35049989       2.01761141
C       -2.04011701      -3.11344450      -1.64767297
H       -2.54210642      -0.36236257      -3.34171661
H       -2.69776017      -5.45472867      -2.75723360
H       -3.68154577      -4.74891659      -4.04179568
H       -4.50721501      -4.93985728      -1.07813406
H       -4.99104640      -6.07299241      -2.33722340
H       -6.83373904      -4.58447477      -2.04630067
H       -6.09694502      -4.15411075      -3.59736311
H       -5.29139772      -2.15939265      -2.69445504
H       -5.01538828       2.18679255      -0.64549257
H       -4.71229067      -2.23393204       1.86716299
H       -6.36365197      -1.62710166       2.26897782
H       -4.91304804      -0.74148826       2.82079265
H       -1.70964084      -3.85677045      -0.93650754
C       -5.85862690       0.28871529      -2.65766187
C       -6.09045286       0.44689107      -3.83055280
Br      -6.46529583       0.70264792      -5.72701825
C       -1.77639484       1.77639484       1.77639484
C       -1.75018733       3.17457010       1.81651555
N       -2.61474056       3.66161598       2.71574620
N       -3.21359698       2.55357411       3.21030473
C       -4.24425461       2.68151994       4.22262659
C       -3.73004934       2.51751817       5.65347432
C       -2.82940661       3.66276199       6.12189403
N       -1.53211697       3.66218400       5.48496856
C       -0.52993021       2.79488448       5.85308428
O       -0.66128560       2.03217555       6.80708023
C        0.64055073       2.80385682       5.00886472
C        1.17184281       3.75305180       4.15795718
C        2.31949430       3.18658432       3.59017604
N        2.54064241       1.95468414       4.04809724
N        1.53344554       1.75482521       4.92717059
C        1.48318992       0.50280920       5.65021053
C       -2.73324863       1.39152200       2.67646385
H       -1.13573924       3.86144808       1.24899828
H       -4.99248907       1.90920270       4.00803067
H       -4.73243703       3.65343248       4.08638853
H       -3.21065626       1.55728516       5.75726493
H       -4.60170630       2.48110638       6.31844953
H       -2.67833245       3.58195622       7.20422582
H       -3.29571955       4.63257287       5.92012646
H       -1.46583091       4.10821632       4.57119819
H        3.00986251       3.61127238       2.87267844
H        0.49483010       0.05715988       5.51672994
H        1.68881753       0.70686082       6.70373252
H        2.24198499      -0.17660707       5.25233571
H       -3.10195777       0.42196843       2.97899264
C        0.73640266       5.09489479       3.86908134
C        0.37172153       6.21868830       3.62714783
Br      -0.21793700       8.03576736       3.23596179
C        1.77639484      -1.77639484       1.77639484
C        1.88406229      -3.16848412       1.68872658
N        2.70846765      -3.66227178       2.62136332
N        3.14911200      -2.55908759       3.26927623
C        4.09280900      -2.69321655       4.36237560
C        3.43927488      -2.71701822       5.74474874
C        2.61716679      -3.97853898       6.01835685
N        1.38817211      -4.03130661       5.25979081
C        0.27685120      -3.29730478       5.60374298
O        0.24699252      -2.62324145       6.63030741
C       -0.80700673      -3.32786861       4.65130893
C       -1.16445127      -4.23260242       3.67101502
C       -2.30684602      -3.71790781       3.04620427
N       -2.68783928      -2.56159408       3.58838418
N       -1.78766893      -2.35983430       4.57638489
C       -1.92530884      -1.18536581       5.40977284
C        2.60663383      -1.39781370       2.79678694
H        1.39314381      -3.84846052       1.00458127
H        4.77779068      -1.83984709       4.29208467
H        4.68423085      -3.59956670       4.18846049
H        2.82096236      -1.82184692       5.88239707
H        4.24026541      -2.66835141       6.49264540
H        2.36284171      -4.01816641       7.08350637
H        3.19255829      -4.87832760       5.77753299
H        1.44785170      -4.38963079       4.30776293
H       -2.88535251      -4.13007272       2.22936810
H       -0.97750779      -0.64229268       5.41427483
H       -2.20317436      -1.50937585       6.41557432
H       -2.70854461      -0.54067068       5.00161758
H        2.84990720      -0.43359906       3.21941257
C       -0.57536679      -5.49534093       3.30759934
C       -0.08200854      -6.55288442       3.00323871
Br       0.71571002      -8.26284281       2.51111332
C       -0.00445707       0.01189536      -1.78238275
H       -0.66409135       0.67374010      -2.43557963
H        0.65740317      -0.63156657      -2.45157240
C       -0.90989263      -0.90692880      -0.91072765
C        0.90977584       0.90977584      -0.90977584
C       -0.00465871       1.77757030       0.00794375
H       -0.66225468       2.44313916      -0.64384735
H        0.64322798       2.43503045       0.67728295
C       -1.78241447       0.00034974      -0.00472694
H       -2.45427497      -0.65498947       0.64260836
H       -2.43311707       0.67328779      -0.65473579
C       -0.91132561       0.90220522       0.91563759
C       -0.01476271      -0.02253852       1.78660255
H       -0.67934791      -0.69751639       2.42135241
H        0.63392994       0.61504881       2.47327442
C        0.01484550      -1.77751727      -0.01636693
H        0.67870853      -2.42144646      -0.68295456
H       -0.62264859      -2.45592969       0.64226336
C        1.78714474       0.01002794       0.00389507
H        2.44202412       0.67113390       0.66197326
H        2.45385902      -0.65136977      -0.64189061
C        0.91606151      -0.90478549       0.90901405
