133
Properties=species:S:1:pos:R:3 pbc="F F F"
C        0.00000000       0.00000000       0.00000000
C        0.88224179       0.88224179      -0.88224179
C        2.21253238       1.09816116      -0.52874230
C        3.01795117       1.90008605      -1.33548832
C        2.49244912       2.47823823      -2.49486130
C        1.15430599       2.26215929      -2.85946622
C        0.35098848       1.45976187      -2.03511254
C        0.60163497       2.84821292      -4.08275399
N       -0.71641105       3.03240008      -4.24280372
N       -0.84988301       3.54756932      -5.47955051
C       -2.18678873       3.79641181      -5.96917691
C        0.34456896       3.72683851      -6.13851664
C        1.29720361       3.27183382      -5.24358830
C        0.52204896       4.22751808      -7.50235576
C        1.39028119       3.55719768      -8.37791020
C        1.58711161       4.01415697      -9.68344628
C        0.91497092       5.14867587     -10.13164216
C        0.05953384       5.82586476      -9.26569261
C       -0.13180067       5.37973349      -7.95587619
H        2.62782067       0.64976016       0.36987856
H        4.05508543       2.07788701      -1.06178348
H        3.13956470       3.10821164      -3.09994729
H       -0.68879459       1.28274509      -2.30251795
H       -2.24496224       3.51955791      -7.02402570
H       -2.40922149       4.85684402      -5.82758911
H       -2.89768392       3.19015298      -5.40061022
H        2.36318824       3.23601696      -5.41829658
H        1.91827859       2.66343314      -8.05067034
H        2.26320968       3.48236677     -10.34865081
H        1.06770371       5.49731501     -11.14947984
H       -0.77856739       5.94389258      -7.28973634
C       -0.63572204       6.99981317      -9.72619712
C       -1.21799884       7.98299496     -10.11186965
Br      -2.15949117       9.57271676     -10.73546951
C       -0.88224179      -0.88224179      -0.88224179
C       -0.42221045      -1.28208631      -2.13513909
C       -1.22569180      -2.08964757      -2.93818616
C       -2.48290745      -2.49887630      -2.48376489
C       -2.95152623      -2.10321949      -1.22118577
C       -2.13720900      -1.28349436      -0.42515954
C       -4.25911101      -2.54373601      -0.72975487
N       -4.91399419      -1.87360299       0.22880443
N       -6.03968315      -2.58051136       0.44295769
C       -6.93353683      -2.13146345       1.48620028
C       -6.15868915      -3.69201107      -0.35922389
C       -5.00527237      -3.68328156      -1.12407179
C       -7.24378352      -4.67393796      -0.33420133
C       -6.93774833      -6.04360873      -0.34403201
C       -7.95068281      -7.00573892      -0.32829313
C       -9.28556923      -6.60940410      -0.30031562
C       -9.59808543      -5.25199511      -0.30101067
C       -8.58929115      -4.28615505      -0.32836280
H        0.55503216      -0.96942419      -2.49331023
H       -0.87533947      -2.39977890      -3.91963754
H       -3.09350922      -3.11932683      -3.13488758
H       -2.48551057      -0.96681194       0.55585406
H       -7.32716031      -2.99620198       2.02474092
H       -7.73860199      -1.55751799       1.02090833
H       -6.38197092      -1.49585308       2.18474473
H       -4.73151201      -4.42173698      -1.86425279
H       -5.90100245      -6.37479234      -0.35658728
H       -7.69562641      -8.06276104      -0.33583980
H      -10.06968148      -7.36156557      -0.28325151
H       -8.85916507      -3.23430483      -0.36159162
C      -10.97746779      -4.83951904      -0.27330142
C      -12.13270052      -4.49407034      -0.25009492
Br     -14.00061413      -3.93550900      -0.21257197
C       -0.88224179       0.88224179       0.88224179
C       -2.23101854       1.03860047       0.56981683
C       -3.03626443       1.84057785       1.37668326
C       -2.49185023       2.47834358       2.49535483
C       -1.13483703       2.32250209       2.81859238
C       -0.33228794       1.51934175       1.99423320
C       -0.56134094       2.97142312       3.99983783
N        0.75395829       3.20723104       4.10551999
N        0.91182360       3.77119616       5.31786425
C        2.25513425       4.08417102       5.74976323
C       -0.26457936       3.93236082       6.01298392
C       -1.23080345       3.41223655       5.16958572
C       -0.41230616       4.47559077       7.36402587
C       -1.22456919       3.80748487       8.29333502
C       -1.39207607       4.30426249       9.58837629
C       -0.74620765       5.47706144       9.97201985
C        0.05336336       6.15192783       9.05252674
C        0.21483964       5.66561745       7.75303119
H       -2.66094525       0.54371511      -0.29695810
H       -4.08808757       1.97200010       1.13466824
H       -3.13981377       3.10681676       3.10109310
H        0.72193212       1.38856712       2.22983345
H        2.36012054       3.84789841       6.81084350
H        2.43393761       5.14590535       5.56324389
H        2.96721400       3.48293354       5.17735974
H       -2.28803540       3.34554120       5.38392518
H       -1.73096828       2.88455226       8.01686154
H       -2.02481534       3.77360821      10.29580370
H       -0.87580384       5.85677914      10.98191559
H        0.81707990       6.22754077       7.04460066
C        0.72132000       7.36535980       9.44624846
C        1.28073369       8.38160907       9.77599039
Br       2.18525831      10.02479819      10.30915522
C        0.88224179      -0.88224179       0.88224179
C        0.54394414      -1.07554926       2.21994244
C        1.34690811      -1.88309974       3.02351769
C        2.48120945      -2.49854461       2.48579459
C        2.82625608      -2.31155756       1.13811786
C        2.01489030      -1.48984135       0.34113125
C        4.00191143      -2.96846181       0.56222865
N        4.60043812      -2.50043850      -0.54208386
N        5.60217670      -3.36516958      -0.79010946
C        6.40030552      -3.15513161      -1.97663713
C        5.69620614      -4.38475116       0.12896681
C        4.65854354      -4.14205586       1.01202632
C        6.65100308      -5.49385859       0.10706114
C        6.19567580      -6.80315188       0.32656139
C        7.08280141      -7.88247384       0.31943961
C        8.43936073      -7.66585185       0.09007637
C        8.90103194      -6.36827755      -0.11821828
C        8.01989090      -5.28451511      -0.10059701
H       -0.33773887      -0.60195413       2.64348701
H        1.09211744      -2.03276690       4.06987158
H        3.09587868      -3.11426348       3.13758148
H        2.26845791      -1.33340753      -0.70539699
H        6.62138197      -4.11846841      -2.44122901
H        7.31801944      -2.63991050      -1.68271830
H        5.83945592      -2.53739402      -2.68377066
H        4.39987664      -4.75086086       1.86676428
H        5.13827904      -6.99545575       0.49864728
H        6.71280343      -8.89049068       0.49093313
H        9.12462513      -8.50917554       0.08069790
H        8.40911811      -4.27887347      -0.23293006
C       10.30329490      -6.14141182      -0.35441847
C       11.47769013      -5.95141178      -0.55223613
Br      13.37658789      -5.64419777      -0.87209056
