154
Properties=species:S:1:pos:R:3 pbc="F F F"
C        1.79157322       1.79157322      -1.79157322
C        1.26729651       2.95604226      -2.34817997
C        2.07431133       3.76397019      -3.15577903
C        3.40785790       3.41146101      -3.41440821
C        3.91527527       2.23133657      -2.84984471
C        3.11227322       1.42460174      -2.03761173
C        4.25290872       4.24915024      -4.26721533
C        4.14482306       5.64264867      -4.50378772
C        5.14679453       5.97696166      -5.39836452
C        5.46232535       7.28073144      -5.98627909
C        4.41980147       8.12558195      -6.39835722
C        4.68802862       9.38571379      -6.94107184
C        6.00622334       9.80976093      -7.07832997
C        7.05512179       8.99075593      -6.66780106
C        6.78190373       7.73467132      -6.11502746
N        5.76940021       4.77935885      -5.66726286
C        6.81243732       4.51191472      -6.63118556
N        5.28161047       3.74172587      -4.95992008
H        0.23448813       3.24139531      -2.16678234
H        1.64071692       4.65906106      -3.59436975
H        4.94527378       1.93543640      -3.04206600
H        3.52752860       0.51646116      -1.60937615
H        3.43057949       6.32609378      -4.06697317
H        3.38328819       7.80840842      -6.30091490
H        3.86325871      10.02287900      -7.24877981
H        8.08609643       9.32218583      -6.76279479
H        7.61566563       7.13102010      -5.76695614
H        6.80930756       3.44680013      -6.87992581
H        7.77116240       4.78250783      -6.18327089
H        6.62252655       5.09073825      -7.53784402
C        6.28635110      11.10598963      -7.63950694
C        6.52095809      12.19158117      -8.10949265
Br       6.90029776      13.94689088      -8.86941979
C       -1.79157322      -1.79157322      -1.79157322
C       -1.20300009      -2.66892976      -2.69958888
C       -2.00998010      -3.47670249      -3.50737796
C       -3.40873386      -3.41003837      -3.41495489
C       -3.98234306      -2.51526963      -2.49884386
C       -3.17784989      -1.71047527      -1.68616153
C       -4.25704130      -4.24659947      -4.26563352
C       -3.94463245      -5.50246069      -4.84416632
C       -5.04839920      -5.88922050      -5.58450102
C       -5.24033301      -7.09371240      -6.39529047
C       -4.18481442      -7.57061604      -7.18831017
C       -4.32924710      -8.73089307      -7.95467409
C       -5.53619346      -9.42312590      -7.93499488
C       -6.59321841      -8.97205702      -7.14840334
C       -6.44085994      -7.81636204      -6.37438052
N       -5.93398188      -4.84622901      -5.43581102
C       -7.20825716      -4.65659458      -6.09068585
N       -5.49872663      -3.87681215      -4.60771764
H       -0.12184765      -2.72870180      -2.79211633
H       -1.53099219      -4.14174366      -4.22141187
H       -5.06541694      -2.44271857      -2.41464067
H       -3.64433900      -1.02665460      -0.98237231
H       -3.02984692      -6.06607183      -4.72772769
H       -3.23517673      -7.03978530      -7.21764949
H       -3.49578727      -9.08195166      -8.55717859
H       -7.53427696      -9.51560712      -7.12119297
H       -7.26684945      -7.50706418      -5.73972825
H       -7.46794796      -3.59422545      -6.07386009
H       -7.96253376      -5.22859373      -5.54581363
H       -7.13339178      -4.98933646      -7.12838059
C       -5.68947494     -10.61708954      -8.72528319
C       -5.81784817     -11.61703409      -9.38714965
Br      -6.02541684     -13.23385985     -10.45733174
C       -1.79157322       1.79157322       1.79157322
C       -3.17802299       1.68193898       1.71155676
C       -3.98607086       2.48917784       2.51881184
C       -3.41384933       3.41231909       3.40755870
C       -2.01557108       3.51224239       3.46864308
C       -1.20525899       2.70255831       2.66666939
C       -4.25619576       4.26606919       4.24700934
C       -5.56897561       4.00720759       4.71507625
C       -5.95986501       5.11485933       5.44739638
C       -7.23106246       5.36954762       6.12872580
C       -8.43524777       4.99823276       5.51026011
C       -9.66317972       5.20631306       6.14532148
C       -9.69511333       5.79207068       7.40713023
C       -8.51153372       6.15997258       8.04217247
C       -7.28394084       5.93997483       7.40768683
N       -4.88901970       5.97423802       5.35276419
C       -4.79203002       7.33567056       5.82783702
N       -3.83883098       5.46299513       4.68143031
H       -3.64012743       0.97928821       1.02325014
H       -5.06562981       2.40015521       2.42836269
H       -1.55028728       4.22584566       4.14664324
H       -0.12476339       2.79586812       2.73273440
H       -6.15771575       3.11606264       4.54986806
H       -8.42857072       4.54170236       4.52233843
H      -10.58128059       4.90630875       5.64732818
H       -8.53074732       6.60775185       9.03257787
H       -6.37323034       6.20017425       7.94023729
H       -4.00760037       7.85683808       5.27159505
H       -4.53627839       7.31122527       6.88943746
H       -5.74463379       7.84395174       5.66252329
C      -10.95829620       6.01047143       8.06308004
C      -12.01621185       6.19338205       8.61243801
Br     -13.72677198       6.48913306       9.50070338
C        1.79157322      -1.79157322       1.79157322
C        3.16307379      -1.55524068       1.85320427
C        3.97111356      -2.36241104       2.66053595
C        3.41424874      -3.41173514       3.40774324
C        2.03173545      -3.63766548       3.32705562
C        1.22076111      -2.82876704       2.52495853
C        4.25792740      -4.26511618       4.24623070
C        5.49477039      -3.93915057       4.85733849
C        5.92408380      -5.07325080       5.52478611
C        7.14993421      -5.28040959       6.29899209
C        8.36247113      -4.74927233       5.83199718
C        9.54499893      -4.90956603       6.56024929
C        9.52299555      -5.60738353       7.76393516
C        8.32913513      -6.13492453       8.24961912
C        7.14576346      -5.96283728       7.52300176
N        4.95180110      -6.00923682       5.25498400
C        4.94361202      -7.41285175       5.59907383
N        3.91993220      -5.52946388       4.53386034
H        3.61429409      -0.75312423       1.27524746
H        5.04112187      -2.17209578       2.68093008
H        1.57929304      -4.44994149       3.89354165
H        0.15234130      -3.02110243       2.47992218
H        6.00841913      -2.98875035       4.82647697
H        8.39806943      -4.20340213       4.89113996
H       10.47015446      -4.48533959       6.17942348
H        8.30492461      -6.67126639       9.19488605
H        6.22117051      -6.35022612       7.94224526
H        4.26325589      -7.94485279       4.92792481
H        4.59576257      -7.51143285       6.62974569
H        5.95084668      -7.81878491       5.48147723
C       10.73965308      -5.77684188       8.51535271
C       11.75860376      -5.91876325       9.14466490
Br      13.40616083      -6.14823810      10.16220950
C       -0.00445707       0.01189536      -1.78238275
H       -0.66409135       0.67374010      -2.43557963
H        0.65740317      -0.63156657      -2.45157240
C       -0.90989263      -0.90692880      -0.91072765
C        0.90977584       0.90977584      -0.90977584
C       -0.00465871       1.77757030       0.00794375
H       -0.66225468       2.44313916      -0.64384735
H        0.64322798       2.43503045       0.67728295
C       -1.78241447       0.00034974      -0.00472694
H       -2.45427497      -0.65498947       0.64260836
H       -2.43311707       0.67328779      -0.65473579
C       -0.91132561       0.90220522       0.91563759
C       -0.01476271      -0.02253852       1.78660255
H       -0.67934791      -0.69751639       2.42135241
H        0.63392994       0.61504881       2.47327442
C        0.01484550      -1.77751727      -0.01636693
H        0.67870853      -2.42144646      -0.68295456
H       -0.62264859      -2.45592969       0.64226336
C        1.78714474       0.01002794       0.00389507
H        2.44202412       0.67113390       0.66197326
H        2.45385902      -0.65136977      -0.64189061
C        0.91606151      -0.90478549       0.90901405
