89
Properties=species:S:1:pos:R:3 pbc="F F F"
C        0.00000000       0.00000000       0.00000000
C        0.88137137       0.88137137      -0.88137137
C        0.61620471       0.97970640      -2.24433500
C        1.41747783       1.78920438      -3.05835400
C        2.48875075       2.50661307      -2.51751253
N        3.33207269       3.34378469      -3.28578029
C        3.28950751       3.60095811      -4.64432248
O        2.46526447       3.11184349      -5.41307134
C        4.32506734       4.50804124      -5.13568869
C        4.56995043       4.83227633      -6.46129448
C        5.65207979       5.74813473      -6.61604578
C        6.18162926       6.09063567      -5.39919857
Br       7.61293842       7.28107691      -5.19388436
S        5.41460688       5.33093096      -4.09437750
C        2.73997788       2.38884077      -1.13564003
Cl       4.05409289       3.24283573      -0.39578317
C        1.94291071       1.58192563      -0.31907631
H       -0.21183365       0.43326666      -2.69064723
H        1.16989531       1.83367985      -4.11434700
H        4.07193886       3.80886596      -2.76742414
H        3.99176613       4.42023259      -7.28158545
H        6.00624140       6.12463293      -7.56807358
H        2.15134858       1.50404853       0.74466996
C       -0.88137137      -0.88137137      -0.88137137
C       -1.96171344      -0.32128156      -1.55725110
C       -2.77208890      -1.12229115      -2.37065616
C       -2.50947624      -2.48789087      -2.51550925
N       -3.28795071      -3.34884113      -3.32484582
C       -4.40675843      -3.04750398      -4.08052568
O       -4.90444643      -1.92689756      -4.15883530
C       -4.99444579      -4.17898696      -4.79536452
C       -6.17553220      -4.16653453      -5.52145450
C       -6.48041549      -5.43215616      -6.10368864
C       -5.51275262      -6.35518309      -5.80352779
Br      -5.55840528      -8.13030307      -6.39919133
S       -4.26739677      -5.73401482      -4.83850374
C       -1.41225533      -3.03327278      -1.81893058
Cl      -1.02935104      -4.71886192      -1.94449883
C       -0.60053781      -2.23764788      -1.00572695
H       -2.18759155       0.73870463      -1.46319332
H       -3.60152800      -0.63896293      -2.87743123
H       -2.98637431      -4.31895524      -3.34289941
H       -6.79193064      -3.27948137      -5.62217216
H       -7.35822988      -5.63575903      -6.70495900
H        0.24176701      -2.67566398      -0.47683019
C       -0.88137137       0.88137137       0.88137137
C       -0.33294782       1.99359454       1.51370374
C       -1.13580324       2.80901420       2.32021876
C       -2.49182857       2.52023703       2.50081075
N       -3.35570052       3.30669577       3.29924138
C       -3.06013758       4.44128303       4.03336748
O       -1.94425007       4.95186669       4.09406253
C       -4.18544512       5.01209437       4.77125778
C       -4.12791943       6.07000636       5.66559545
C       -5.40019651       6.39307740       6.22298638
C       -6.37687484       5.57203097       5.72255769
Br      -8.18088502       5.69663363       6.21038103
S       -5.79340264       4.42968946       4.61682324
C       -3.02407731       1.38712632       1.85325506
Cl      -4.69444539       0.96262651       2.03563989
C       -2.22652040       0.57012908       1.04726316
H        0.71885853       2.24182618       1.38911260
H       -0.66214756       3.66488607       2.79088853
H       -4.31879828       2.98594538       3.34348530
H       -3.20323828       6.58357651       5.90676937
H       -5.57183175       7.18353191       6.94358425
H       -2.65467611      -0.29912182       0.55517286
C        0.88137137      -0.88137137       0.88137137
C        1.65684986      -1.88157514       0.30182110
C        2.47080320      -2.69117393       1.10305908
C        2.51677648      -2.50774301       2.48835686
N        3.32106537      -3.28961734       3.35095495
C        4.16301879      -4.33982404       3.03194527
O        4.33966084      -4.75967305       1.89084541
C        4.84486752      -4.95449086       4.16943888
C        5.64403641      -6.08687744       4.13260738
C        6.16778494      -6.43627545       5.41219991
C        5.75206271      -5.54894174       6.37045905
Br       6.24225012      -5.67169439       8.17395518
S        4.74865872      -4.32652124       5.76473538
C        1.72048386      -1.49102679       3.05294804
Cl       1.72046946      -1.20926402       4.76297832
C        0.90632397      -0.68042143       2.25716724
H        1.64087433      -2.04480933      -0.77360342
H        3.05727903      -3.45642143       0.60422169
H        3.26188511      -3.04980184       4.33654202
H        5.83658930      -6.63849612       3.21849874
H        6.81041092      -7.28774707       5.60078991
H        0.29970122       0.09920178       2.71022771
