118
Properties=species:S:1:pos:R:3 pbc="F F F"
C        1.79127539       1.79127539      -1.79127539
C        1.52610873       1.88961042      -3.15423902
C        2.32738185       2.69910840      -3.96825803
C        3.39865478       3.41651709      -3.42741656
N        4.24197671       4.25368872      -4.19568431
C        4.19941153       4.51086213      -5.55422651
O        3.37516850       4.02174751      -6.32297536
C        5.23497137       5.41794526      -6.04559271
C        5.47985445       5.74218035      -7.37119851
C        6.56198381       6.65803875      -7.52594981
C        7.09153328       7.00053970      -6.30910260
S        6.32451090       6.24083499      -5.00428152
C        3.64988191       3.29874480      -2.04554406
Cl       4.96399691       4.15273976      -1.30568719
C        2.85281473       2.49182965      -1.22898033
H        0.69807038       1.34317068      -3.60055125
H        2.07979933       2.74358388      -5.02425102
H        4.98184288       4.71876999      -3.67732816
H        4.90167016       5.33013661      -8.19148947
H        6.91614542       7.03453695      -8.47797760
H        3.06125260       2.41395255      -0.16523407
C        8.19198055       7.91579814      -6.15124889
C        9.11360513       8.68232709      -6.01904640
Br      10.60379413       9.92173957      -5.80528617
C       -1.79127539      -1.79127539      -1.79127539
C       -3.01606386      -2.24445952      -1.30943480
C       -3.83174913      -3.04967834      -2.11332081
C       -3.43082025      -3.40777604      -3.40399214
N       -4.21087605      -4.21467464      -4.26579904
C       -5.44382936      -4.79437420      -4.02629661
O       -6.06689824      -4.67938187      -2.97361126
C       -5.97781498      -5.59200597      -5.12868839
C       -7.12897800      -6.36422939      -5.10002592
C       -7.38326536      -7.02446818      -6.33823883
C       -6.41826119      -6.72020837      -7.26270602
S       -5.22415869      -5.67616611      -6.66930261
C       -2.18530288      -2.93982870      -3.86903919
Cl      -1.61897270      -3.34818795      -5.45526322
C       -1.36758657      -2.13587351      -3.07016464
H       -3.35273509      -1.97958999      -0.30946723
H       -4.77763085      -3.37693173      -1.69307165
H       -3.80243345      -4.39748578      -5.17802180
H       -7.75595441      -6.44863879      -4.21870304
H       -8.22777483      -7.67708533      -6.52379982
H       -0.41064098      -1.78372048      -3.44607776
C       -6.41610729      -7.23561247      -8.60730781
C       -6.41430341      -7.66726341      -9.73341180
Br      -6.41138668      -8.36520647     -11.55422672
C       -1.79127539       1.79127539       1.79127539
C       -1.32014648       2.22129027       3.02852143
C       -2.12094915       3.03317831       3.84062081
C       -3.39744512       3.42193717       3.42320614
N       -4.25251324       4.24341169       4.19542481
C       -4.02992858       4.78651829       5.44805330
O       -2.99981046       4.62271328       6.09736762
C       -5.13284875       5.58300715       5.98265343
C       -5.20664109       6.13362193       7.25297029
C       -6.41474277       6.85899098       7.47223862
C       -7.20828003       6.83793120       6.35496435
S       -6.53633364       5.96377655       5.06951722
C       -3.85433155       2.97164115       2.16819806
Cl      -5.42795108       3.40726381       1.58720898
C       -3.05856418       2.16096516       1.35409537
H       -0.33028056       1.93457099       3.37694076
H       -1.70867731       3.34317685       4.79578007
H       -5.15284877       4.45193479       3.77315748
H       -4.42053358       6.01208153       7.99068113
H       -6.66967802       7.36155237       8.39742959
H       -3.42745164       1.82400858       0.38897900
C       -8.48823063       7.49317511       6.27762184
C       -9.56018926       8.04194188       6.21284748
Br     -11.29345571       8.92925134       6.10811282
C        1.79127539      -1.79127539       1.79127539
C        3.08907440      -2.09272207       1.38816171
C        3.90478989      -2.89693227       2.19302612
C        3.43095863      -3.40547680       3.40615300
N        4.20658135      -4.21972372       4.26504466
C        5.50368083      -4.66840796       4.09241138
O        6.20025044      -4.40426886       3.11537207
C        6.01396536      -5.51652458       5.16801941
C        7.22988807      -6.18263090       5.18071434
C        7.43848499      -6.93065787       6.37682951
C        6.37475168      -6.79591804       7.23050585
S        5.14371249      -5.80624254       6.61967238
C        2.11264951      -3.08958379       3.79193746
Cl       1.45436804      -3.68931636       5.27873946
C        1.29461193      -2.28726250       2.99175029
H        3.48318512      -1.70898921       0.44961798
H        4.90902568      -3.10272977       1.83587877
H        3.74109916      -4.52000214       5.11683973
H        7.93427850      -6.13183760       4.35718015
H        8.32099007      -7.52385145       6.58381845
H        0.28084731      -2.05359760       3.30599432
C        6.30653615      -7.43178322       8.52070821
C        6.24940564      -7.96432031       9.60125268
Br       6.15703044      -8.82538774      11.34840170
C       -0.00445707       0.01189536      -1.78238275
H       -0.66409135       0.67374010      -2.43557963
H        0.65740317      -0.63156657      -2.45157240
C       -0.90989263      -0.90692880      -0.91072765
C        0.90977584       0.90977584      -0.90977584
C       -0.00465871       1.77757030       0.00794375
H       -0.66225468       2.44313916      -0.64384735
H        0.64322798       2.43503045       0.67728295
C       -1.78241447       0.00034974      -0.00472694
H       -2.45427497      -0.65498947       0.64260836
H       -2.43311707       0.67328779      -0.65473579
C       -0.91132561       0.90220522       0.91563759
C       -0.01476271      -0.02253852       1.78660255
H       -0.67934791      -0.69751639       2.42135241
H        0.63392994       0.61504881       2.47327442
C        0.01484550      -1.77751727      -0.01636693
H        0.67870853      -2.42144646      -0.68295456
H       -0.62264859      -2.45592969       0.64226336
C        1.78714474       0.01002794       0.00389507
H        2.44202412       0.67113390       0.66197326
H        2.45385902      -0.65136977      -0.64189061
C        0.91606151      -0.90478549       0.90901405
