110
Properties=species:S:1:pos:R:3 pbc="F F F"
C        1.79127539       1.79127539      -1.79127539
C        1.52610873       1.88961042      -3.15423902
C        2.32738185       2.69910840      -3.96825803
C        3.39865478       3.41651709      -3.42741656
N        4.24197671       4.25368872      -4.19568431
C        4.19941153       4.51086213      -5.55422651
O        3.37516850       4.02174751      -6.32297536
C        5.23497137       5.41794526      -6.04559271
C        5.47985445       5.74218035      -7.37119851
C        6.56198381       6.65803875      -7.52594981
C        7.09153328       7.00053970      -6.30910260
Br       8.52284244       8.19098093      -6.10378839
S        6.32451090       6.24083499      -5.00428152
C        3.64988191       3.29874480      -2.04554406
Cl       4.96399691       4.15273976      -1.30568719
C        2.85281473       2.49182965      -1.22898033
H        0.69807038       1.34317068      -3.60055125
H        2.07979933       2.74358388      -5.02425102
H        4.98184288       4.71876999      -3.67732816
H        4.90167016       5.33013661      -8.19148947
H        6.91614542       7.03453695      -8.47797760
H        3.06125260       2.41395255      -0.16523407
C       -1.79127539      -1.79127539      -1.79127539
C       -3.00952771      -2.25627701      -1.30415346
C       -3.82520322      -3.06157778      -2.10796728
C       -3.43079284      -3.40796234      -3.40383325
N       -4.21123159      -4.21429534      -4.26582281
C       -5.43845948      -4.80419027      -4.02185042
O       -6.05497528      -4.70080069      -2.96411540
C       -5.97457606      -5.59788580      -5.12604747
C       -7.12015414      -6.37827147      -5.09480770
C       -7.37847834      -7.03169897      -6.33579506
C       -6.42204644      -6.71436487      -7.26476426
Br      -6.42677368      -7.37260735      -9.01823073
S       -5.23108342      -5.66616893      -6.67237506
C       -2.19179779      -2.92817005      -3.87420292
Cl      -1.63370142      -3.32162395      -5.46709849
C       -1.37411746      -2.12408414      -3.07542311
H       -3.34106060      -2.00066285      -0.30006887
H       -4.76585955      -3.39829094      -1.68348374
H       -3.80788732      -4.38796186      -5.18209186
H       -7.74039196      -6.47311834      -4.20978594
H       -8.21973221      -7.68887389      -6.52005387
H       -0.42226149      -1.76270168      -3.45547605
C       -1.79127539       1.79127539       1.79127539
C       -1.27950488       2.31562201       2.97483129
C       -2.08033017       3.12811811       3.78630000
C       -3.39745196       3.42332620       3.42181026
N       -4.25506554       4.24019502       4.19608918
C       -3.99667778       4.86479702       5.40302537
O       -2.92549470       4.79378559       6.00061108
C       -5.11274011       5.62992520       5.95584403
C       -5.14929651       6.24708181       7.19685499
C       -6.38313091       6.91773109       7.44511036
C       -7.23311336       6.79056897       6.37749325
Br      -8.94663838       7.54497624       6.32599714
S       -6.58266187       5.88216636       5.10479919
C       -3.89482604       2.87851691       2.22082781
Cl      -5.51961929       3.19517256       1.70763201
C       -3.09919722       2.06684455       1.40758294
H       -0.25764365       2.10280767       3.28134099
H       -1.63558276       3.51361944       4.69843203
H       -5.18719732       4.37566973       3.81507398
H       -4.31902515       6.21010922       7.89416187
H       -6.61610091       7.45762684       8.35493223
H       -3.49969648       1.65623464       0.48450811
C        1.79127539      -1.79127539       1.79127539
C        3.05796230      -2.16261095       1.34938493
C        3.87368581      -2.96727566       2.15378681
C        3.43094411      -3.40651442       3.40512989
N        4.20849712      -4.21735694       4.26549567
C        5.47821108      -4.72641009       4.05987900
O        6.14337994      -4.53100501       3.04550642
C        5.99856828      -5.55128689       5.14865417
C        7.18626568      -6.26657251       5.14039512
C        7.41449118      -6.97408881       6.35739238
C        6.39361764      -6.76089039       7.24666755
Br       6.34199102      -7.51553787       8.96008286
S        5.17881328      -5.74593591       6.64487822
C        2.14363681      -3.02059478       3.82993918
Cl       1.52453270      -3.53218543       5.36570574
C        1.32571478      -2.21753120       3.03037873
H        3.42758490      -1.83363091       0.38057650
H        4.85305904      -3.22901273       1.76556246
H        3.76734512      -4.46351955       5.14707637
H        7.85709995      -6.27832544       4.28787085
H        8.28037330      -7.59486013       6.55342656
H        0.33615368      -1.92929602       3.37498953
C       -0.00445707       0.01189536      -1.78238275
H       -0.66409135       0.67374010      -2.43557963
H        0.65740317      -0.63156657      -2.45157240
C       -0.90989263      -0.90692880      -0.91072765
C        0.90977584       0.90977584      -0.90977584
C       -0.00465871       1.77757030       0.00794375
H       -0.66225468       2.44313916      -0.64384735
H        0.64322798       2.43503045       0.67728295
C       -1.78241447       0.00034974      -0.00472694
H       -2.45427497      -0.65498947       0.64260836
H       -2.43311707       0.67328779      -0.65473579
C       -0.91132561       0.90220522       0.91563759
C       -0.01476271      -0.02253852       1.78660255
H       -0.67934791      -0.69751639       2.42135241
H        0.63392994       0.61504881       2.47327442
C        0.01484550      -1.77751727      -0.01636693
H        0.67870853      -2.42144646      -0.68295456
H       -0.62264859      -2.45592969       0.64226336
C        1.78714474       0.01002794       0.00389507
H        2.44202412       0.67113390       0.66197326
H        2.45385902      -0.65136977      -0.64189061
C        0.91606151      -0.90478549       0.90901405
