93
Properties=species:S:1:pos:R:3 pbc="F F F"
C        0.00000000       0.00000000       0.00000000
C        0.88150350       0.88150350      -0.88150350
C        2.20047760       1.13352078      -0.50905679
C        3.00447809       1.93912823      -1.31793868
C        2.48420526       2.49896380      -2.48545422
C        1.16413266       2.24108696      -2.85834820
C        0.36047833       1.42857064      -2.05400207
N        3.31836341       3.29977563      -3.31866370
S        4.45547981       2.48750397      -4.28304932
O        5.14762139       3.49558208      -5.05690712
O        5.17221601       1.51307282      -3.48984642
C        3.55789237       1.52749846      -5.48502369
C        3.53438062       0.17333374      -5.76771941
C        2.63852363      -0.14221490      -6.83311431
C        2.02268933       0.98720496      -7.30983857
Br       0.77210960       0.97442733      -8.70411047
S        2.50031208       2.40265670      -6.51266824
H        2.61323496       0.71009218       0.40302083
H        4.03496353       2.13198893      -1.02742879
H        0.74373214       2.66269484      -3.76650451
H       -0.66706858       1.22932066      -2.34799810
H        2.83989008       4.01186630      -3.86999786
H        4.13732025      -0.54943632      -5.22900115
H        2.46673878      -1.14072775      -7.21737371
C       -0.88150350      -0.88150350      -0.88150350
C       -0.33289995      -1.99454852      -1.51560669
C       -1.14193048      -2.79942946      -2.32018505
C       -2.48899808      -2.48164196      -2.49798325
C       -3.03680824      -1.36880152      -1.85795806
C       -2.23033124      -0.56670057      -1.04601922
N       -3.31410670      -3.32204953      -3.30064650
S       -3.81078824      -4.79584406      -2.61940080
O       -4.65776099      -5.44654745      -3.59580215
O       -2.67982802      -5.47231915      -2.02298809
C       -4.89254928      -4.42342295      -1.25444228
C       -4.83478775      -4.73336133       0.09271531
C       -5.94393597      -4.20395311       0.81846604
C       -6.79249952      -3.51587926      -0.01135407
Br      -8.35701096      -2.67099680       0.57736035
S       -6.28822017      -3.49972463      -1.62769222
H        0.71727126      -2.24610032      -1.39147725
H       -0.71278347      -3.66992723      -2.81167055
H       -4.08429482      -1.10938435      -1.97925233
H       -2.66065772       0.29891188      -0.54850434
H       -4.10487688      -2.86381349      -3.75306387
H       -4.02920180      -5.31499975       0.52731647
H       -6.09838397      -4.32872332       1.88372255
C       -0.88150350       0.88150350       0.88150350
C       -1.94747677       0.31658585       1.57899255
C       -2.75109936       1.12518026       2.38526537
C       -2.49490671       2.49359537       2.48012121
C       -1.42374901       3.05585191       1.78396690
C       -0.61364992       2.24660292       0.98279819
N       -3.30427622       3.30794684       3.32457967
S       -3.03041187       3.19892574       4.99669549
O       -3.93376138       4.13346044       5.63288876
O       -2.96533992       1.81096057       5.39883477
C       -1.40311643       3.84577314       5.32152494
C       -0.27855641       3.29084396       5.90603340
C        0.81830433       4.20332481       5.94440256
C        0.47590077       5.40903065       5.38660297
Br       1.65493258       6.85773278       5.24784720
S       -1.12208551       5.46417934       4.82937218
H       -2.16171056      -0.74651902       1.50511478
H       -3.58072980       0.68186948       2.93178197
H       -1.20504389       4.11744845       1.85043915
H        0.22024035       2.68792366       0.44256687
H       -3.38697496       4.28619389       3.04858539
H       -0.25498186       2.27550365       6.28639957
H        1.79311468       3.97668080       6.35981862
C        0.88150350      -0.88150350       0.88150350
C        0.45012262      -1.23413315       2.15879940
C        1.25803593      -2.04139417       2.96211490
C        2.49630299      -2.48044279       2.49187750
C        2.92374853      -2.12943557       1.21038373
C        2.11286174      -1.32808545       0.40210385
N        3.30415144      -3.32455093       3.30810035
S        2.83908932      -4.95263151       3.43431226
O        3.82027922      -5.60675240       4.27307897
O        1.42195592      -5.04337411       3.70980523
C        3.04161111      -5.69889078       1.82991262
C        2.15642660      -6.33853041       0.98047676
C        2.78212749      -6.77362709      -0.22633153
C        4.11370263      -6.44364610      -0.23761587
Br       5.26710585      -6.84207932      -1.65853777
S        4.61939767      -5.63484696       1.16139240
H       -0.50848230      -0.89013593       2.53865268
H        0.91814644      -2.31855568       3.95767913
H        3.88124923      -2.46680275       0.82487952
H        2.44877494      -1.05727451      -0.59579926
H        4.30975501      -3.26111319       3.15088604
H        1.10958644      -6.48322570       1.22407293
H        2.27506863      -7.29677217      -1.02845606
