101
Properties=species:S:1:pos:R:3 pbc="F F F"
C        0.00000000       0.00000000       0.00000000
C        0.88150350       0.88150350      -0.88150350
C        2.20047760       1.13352078      -0.50905679
C        3.00447809       1.93912823      -1.31793868
C        2.48420526       2.49896380      -2.48545422
C        1.16413266       2.24108696      -2.85834820
C        0.36047833       1.42857064      -2.05400207
N        3.31836341       3.29977563      -3.31866370
S        4.45547981       2.48750397      -4.28304932
O        5.14762139       3.49558208      -5.05690712
O        5.17221601       1.51307282      -3.48984642
C        3.55789237       1.52749846      -5.48502369
C        3.53438062       0.17333374      -5.76771941
C        2.63852363      -0.14221490      -6.83311431
C        2.02268933       0.98720496      -7.30983857
S        2.50031208       2.40265670      -6.51266824
H        2.61323496       0.71009218       0.40302083
H        4.03496353       2.13198893      -1.02742879
H        0.74373214       2.66269484      -3.76650451
H       -0.66706858       1.22932066      -2.34799810
H        2.83989008       4.01186630      -3.86999786
H        4.13732025      -0.54943632      -5.22900115
H        2.46673878      -1.14072775      -7.21737371
C        1.06121552       0.97738123      -8.38178615
C        0.25598121       0.96915386      -9.27954225
Br      -1.04601457       0.95585091     -10.73113793
C       -0.88150350      -0.88150350      -0.88150350
C       -0.29340815      -1.77832460      -1.77132242
C       -1.10227904      -2.58396495      -2.57530101
C       -2.49162363      -2.48051685      -2.49648280
C       -3.07789565      -1.58462545      -1.60104673
C       -2.26983663      -0.78321089      -0.79000351
N       -3.31062405      -3.32381469      -3.30236398
S       -3.46123732      -4.94477665      -2.82001912
O       -4.35925360      -5.58161263      -3.75924435
O       -2.15774040      -5.49615870      -2.52123615
C       -4.33428308      -4.96828962      -1.26784180
C       -4.00047778      -5.45750411      -0.01745188
C       -5.03334359      -5.23921962       0.94314016
C       -6.10368098      -4.59369662       0.37764475
S       -5.89337550      -4.25438333      -1.26787820
H        0.78778368      -1.86055875      -1.84753124
H       -0.64148354      -3.28599096      -3.26690675
H       -4.15713549      -1.49468217      -1.52111384
H       -2.73002666      -0.08702976      -0.09319376
H       -4.22597274      -2.94747765      -3.54830385
H       -3.05569807      -5.94888485       0.18769784
H       -4.98194431      -5.54335528       1.98191484
C       -7.29246674      -4.23451895       1.10660278
C       -8.28807481      -3.93370765       1.71710514
Br      -9.89788886      -3.44732122       2.70423581
C       -0.88150350       0.88150350       0.88150350
C       -1.91807568       0.30891400       1.61606549
C       -2.72175338       1.11756713       2.42222449
C       -2.49521072       2.49325396       2.48015860
C       -1.45336507       3.06333187       1.74687088
C       -0.64308370       2.25428905       0.94567828
N       -3.30390202       3.30841468       3.32448604
S       -2.98984633       3.24433126       4.99185551
O       -3.89995870       4.17266846       5.62748342
O       -2.88360147       1.86786842       5.42366537
C       -1.37102329       3.93515434       5.26423688
C       -0.22099487       3.41946954       5.83496937
C        0.85504736       4.35716425       5.82730615
C        0.47231296       5.54159025       5.25045557
S       -1.13871367       5.54768151       4.72924184
H       -2.10927099      -0.76018822       1.57122355
H       -3.52833407       0.66837232       2.99767486
H       -1.25783334       4.13085632       1.78424184
H        0.16794276       2.70173661       0.37645633
H       -3.41543226       4.27789387       3.02842810
H       -0.16533943       2.41399433       6.23755131
H        1.84398524       4.16229414       6.22507584
C        1.35012246       6.67283207       5.09767330
C        2.08528792       7.62024709       4.96971815
Br       3.27398829       9.15213706       4.76282550
C        0.88150350      -0.88150350       0.88150350
C        0.65962499      -0.92692532       2.25650485
C        1.46673505      -1.73496392       3.05984603
C        2.49803314      -2.48170419       2.48888595
C        2.71501096      -2.43776077       1.11079609
C        1.90307312      -1.63566107       0.30431684
N        3.30158093      -3.32321499       3.31200682
S        2.60961257      -4.78363570       3.83278482
O        3.61635101      -5.47217702       4.61158256
O        1.27984270      -4.54543105       4.34986151
C        2.36497479      -5.80853465       2.39690507
C        1.23627841      -6.39094878       1.84820658
C        1.53043518      -7.13362021       0.66536766
C        2.86916251      -7.08028092       0.37028942
S        3.76777380      -6.16894142       1.47892180
H       -0.13494739      -0.34226714       2.71298656
H        1.28988163      -1.77187595       4.13262367
H        3.50848691      -3.01672221       0.64772237
H        2.07457737      -1.60448275      -0.76880993
H        4.25261369      -3.48687702       2.98226353
H        0.24914891      -6.28344622       2.28428994
H        0.79564380      -7.67056307       0.07717787
C        3.45939917      -7.73141539      -0.77043166
C        3.95372237      -8.27674051      -1.72578557
Br       4.75300118      -9.15848511      -3.27051203
