85
Properties=species:S:1:pos:R:3 pbc="F F F"
C        0.00000000       0.00000000       0.00000000
C       -3.10594638       2.75566447      -1.20130666
C       -1.79524678       2.29551168      -1.76417525
O       -1.66240259       1.70961604      -2.83131596
O       -0.77784788       2.64550266      -0.88475831
C        0.46962116       2.16391900      -1.30308813
C        0.88587503       0.88587503      -0.88587503
C        2.13739129       0.39939559      -1.26072722
C        2.95447913       1.21203663      -2.03437175
O        4.21916175       0.76206164      -2.41174569
C        4.82218479       1.77737127      -3.14690147
O        5.95286930       1.67651175      -3.60034061
S        3.85101697       3.23226101      -3.37700028
C        2.56083195       2.48770559      -2.43978247
C        1.31306452       2.98215747      -2.07303857
H       -3.23432598       2.35758777      -0.19087872
H       -3.92137775       2.37565201      -1.82343261
H       -3.14434651       3.84759303      -1.19195105
H        2.47704739      -0.58580316      -0.95373472
C        0.89966866       4.30697249      -2.45718571
C        0.55344962       5.41650507      -2.77890894
Br      -0.00635728       7.21052541      -3.29910818
C        3.01359839      -2.96534014      -0.89928300
C        1.75825781      -2.47073947      -1.55195848
O        1.70929926      -1.93549456      -2.65233411
O        0.68159292      -2.72342274      -0.71058327
C       -0.51673392      -2.20303716      -1.21685721
C       -0.88587503      -0.88587503      -0.88587503
C       -2.09014018      -0.35813542      -1.34923851
C       -2.90915136      -1.16851963      -2.12321651
O       -4.12832960      -0.67666805      -2.58797143
C       -4.74632395      -1.69780602      -3.30232756
O       -5.84630691      -1.56478338      -3.81863138
S       -3.84222824      -3.20911767      -3.40893236
C       -2.56301981      -2.48157500      -2.44372521
C       -1.36250772      -3.01750370      -1.98824914
H        3.11229547      -2.52190826       0.09547228
H        3.87762189      -2.65925802      -1.49607074
H        2.99442008      -4.05584924      -0.83376840
H       -2.39270442       0.65738649      -1.10966101
C       -1.00029996      -4.37944707      -2.28407983
C       -0.69695095      -5.52007464      -2.53183803
Br      -0.20646127      -7.36437295      -2.93244209
C        3.22272932       2.03501499       2.03873908
C        1.78860839       1.71678408       2.33626445
O        1.40853541       1.01896915       3.26809567
O        0.98189417       2.34143593       1.39287133
C       -0.37032250       2.01197695       1.55432884
C       -0.88587503       0.88587503       0.88587503
C       -2.23579486       0.55822838       1.00349086
C       -3.04657291       1.37691825       1.77739635
O       -4.40476764       1.08671321       1.90148822
C       -4.97237087       2.07472952       2.69935714
O       -6.16385906       2.09409385       2.97176875
S       -3.86026459       3.31098193       3.28903175
C       -2.55156836       2.50591486       2.43083680
C       -1.20551322       2.84084268       2.32190466
H        3.45464866       1.76375277       1.00503640
H        3.86884634       1.44841320       2.69814002
H        3.41130411       3.09774979       2.20875188
H       -2.65390654      -0.30885515       0.49992755
C       -0.68108348       4.01765586       2.96508752
C       -0.24187357       5.00323690       3.50375316
Br       0.46829171       6.59683809       4.37472993
C       -3.10495550      -2.75840308       1.19757717
C       -1.79490722      -2.29777511       1.76157225
O       -1.66311458      -1.71247432       2.82916967
O       -0.77672673      -2.64655930       0.88258053
C        0.47016930      -2.16444870       1.30201029
C        0.88587503      -0.88587503       0.88587503
C        2.13684281      -0.39883841       1.26183287
C        2.95395545      -1.21145181       2.03548024
O        4.21811121      -0.76091287       2.41394500
C        4.82131259      -1.77630641       3.14883853
O        5.95164409      -1.67501642       3.60306115
S        3.85092467      -3.23195961       3.37739398
C        2.56086240      -2.48762859       2.43982903
C        1.31364336      -2.98264041       2.07197679
H       -3.23294578      -2.35976519       0.18732110
H       -3.92102401      -2.37930526       1.81942563
H       -3.14265480      -3.85034966       1.18750270
H        2.47606706       0.58677130       0.95568318
C        0.90084643      -4.30796226       2.45501817
C        0.55512900      -5.41791930       2.77581533
Br      -0.00386685      -7.21262597       3.29451720
