145
Properties=species:S:1:pos:R:3 pbc="F F F"
C        0.00000000       0.00000000       0.00000000
C        0.86725562       0.86725562      -0.86725562
C        1.61156090       1.93872028      -0.43103531
C        2.27077050       2.45299615      -1.57405031
C        1.88969738       1.66342159      -2.64282973
O        1.02234433       0.69386456      -2.20738533
C        2.24672347       1.72192550      -4.04556174
O        3.03065785       2.54164843      -4.51020656
N        1.59900067       0.78237087      -4.82742079
C        1.67084211       0.84354520      -6.27152088
C        0.91227523      -0.29693196      -6.94112350
C        1.56240372      -1.66820909      -6.74859280
N        2.85278489      -1.80238780      -7.40201041
N        2.90331967      -1.67173210      -8.74393086
C        4.18957912      -1.88256312      -9.05288757
C        4.62565713      -1.80124269     -10.46809862
C        4.94412816      -2.15155961      -7.89413020
C        4.06825989      -2.09553798      -6.83361874
C        4.27217740      -2.29838003      -5.37861900
H        1.67468402       2.30597768       0.58381215
H        2.94431540       3.29834824      -1.62827561
H        0.83665942       0.29066861      -4.37404502
H        2.72388717       0.86764492      -6.57180311
H        1.22779374       1.80022072      -6.57294872
H        0.82390221      -0.07628164      -8.01188295
H       -0.10945457      -0.33649690      -6.54352437
H        0.92059955      -2.44360643      -7.18429860
H        1.67227442      -1.90410152      -5.68643530
H        5.51988005      -2.40321517     -10.65257261
H        4.84901017      -0.76337352     -10.73432770
H        3.84200136      -2.16582722     -11.14047921
H        3.81443036      -1.49066115      -4.79962987
H        5.33478866      -2.31959354      -5.11991599
H        3.83126557      -3.24911353      -5.06250898
C        6.35622277      -2.43139714      -7.85835611
C        7.53885200      -2.66576108      -7.82839530
Br       9.45106344      -3.04470773      -7.77995122
C       -0.86725562      -0.86725562      -0.86725562
C       -1.16411349      -2.18901156      -0.62819144
C       -2.00923923      -2.60158057      -1.68699716
C       -2.17926464      -1.50514884      -2.51153521
O       -1.47151935      -0.44262146      -2.00945341
C       -2.93468153      -1.34264314      -3.73688605
O       -3.60993763      -2.23427404      -4.23830116
N       -2.80436866      -0.09165015      -4.31277352
C       -3.30977174       0.16767022      -5.64380667
C       -3.08926519       1.61205298      -6.07925456
C       -3.94805260       2.62438374      -5.31911858
N       -5.37194139       2.49550427      -5.57597039
N       -5.80937320       2.67366368      -6.83980891
C       -7.13921529       2.53593882      -6.75662710
C       -7.96594063       2.65554217      -7.98211460
C       -7.53243082       2.27505285      -5.42932078
C       -6.38033654       2.25029989      -4.67630399
C       -6.15839572       2.03214470      -3.22616535
H       -0.81739641      -2.78438542       0.20493227
H       -2.44800623      -3.57822483      -1.84470819
H       -2.07570519       0.49404224      -3.91971010
H       -4.36730602      -0.11497433      -5.68105485
H       -2.77280433      -0.50275614      -6.32540270
H       -3.29264184       1.68754889      -7.15441057
H       -2.03359410       1.87630018      -5.94027898
H       -3.67600762       3.64142495      -5.62670904
H       -3.77072624       2.55817263      -4.24205460
H       -8.98758250       2.97168455      -7.75333953
H       -8.01202354       1.69283642      -8.50077723
H       -7.54152972       3.39459882      -8.66972245
H       -5.36622379       1.29721178      -3.05438707
H       -7.05975010       1.65728553      -2.73264654
H       -5.87607461       2.97134182      -2.73992824
C       -8.88591742       2.08056194      -4.97782625
C      -10.01946245       1.91767581      -4.59969958
Br     -11.85230889       1.65430271      -3.98830074
C       -0.86725562       0.86725562       0.86725562
C       -1.47653057       0.46994886       2.03483706
C       -2.18135630       1.59981803       2.51664263
C       -1.96011652       2.62253607       1.61329611
O       -1.15782932       2.16834075       0.59742415
C       -2.42893831       3.99305038       1.59222204
O       -3.12916145       4.48181941       2.47153197
N       -2.03817921       4.70085664       0.46975648
C       -2.59798927       6.00433207       0.18358685
C       -2.01520724       6.62327635      -1.08201682
C       -0.54962092       7.04046042      -0.94729390
N       -0.33334912       8.12807103      -0.00901265
N       -0.92383373       9.31438668      -0.26270198
C       -0.51509566      10.11181424       0.73299367
C       -0.98847318      11.51627617       0.78776370
C        0.34063938       9.41711468       1.61022344
C        0.44892788       8.13539915       1.11986936
C        1.21072163       6.95870177       1.60443622
H       -1.42118597      -0.51075811       2.48642170
H       -2.78421917       1.67441275       3.41230733
H       -1.63021722       4.14535450      -0.27419867
H       -2.45667717       6.64880871       1.05784932
H       -3.67833223       5.86674318       0.05588777
H       -2.62382085       7.49317553      -1.35749285
H       -2.09930547       5.90699547      -1.90872804
H       -0.17883995       7.39806171      -1.91560995
H        0.07507154       6.18999213      -0.66031239
H       -0.28550349      12.16103523       1.32269877
H       -1.95678433      11.56782038       1.29535964
H       -1.10799823      11.92837467      -0.21971955
H        0.57917939       6.06579710       1.63678137
H        1.59774497       7.11776000       2.61509608
H        2.06293978       6.76112358       0.94647723
C        0.96863305       9.96926102       2.78255376
C        1.49457775      10.43168357       3.76438040
Br       2.34498584      11.17938173       5.35191104
C        0.86725562      -0.86725562       0.86725562
C        1.82919984      -0.41281583       1.73930082
C        2.38844201      -1.56419953       2.34517542
C        1.73342492      -2.65591196       1.80661182
O        0.80380443      -2.22568023       0.89410956
C        1.88900793      -4.07550762       2.04969516
O        2.67950951      -4.53960267       2.86340065
N        1.08128730      -4.87076076       1.25674427
C        1.26696406      -6.30533121       1.21361291
C        0.25887656      -6.99582227       0.30176794
C       -1.17346066      -6.97762358       0.83862452
N       -1.35457946      -7.75422667       2.05276029
N       -1.10744312      -9.07968877       2.00327277
C       -1.39552194      -9.52043999       3.23498552
C       -1.22273168     -10.95769197       3.55755276
C       -1.83022721      -8.46124013       4.05568583
C       -1.79802033      -7.32470986       3.27965111
C       -2.14818749      -5.91609489       3.58450897
H        2.09641015       0.61911663       1.91955604
H        3.17633688      -1.60885211       3.08575026
H        0.61554443      -4.39255549       0.49327313
H        1.23062144      -6.69681070       2.23590306
H        2.28051626      -6.48482086       0.83562605
H        0.58227881      -8.03211027       0.14511444
H        0.26844608      -6.51188871      -0.68276188
H       -1.85014712      -7.41624951       0.09518932
H       -1.51299539      -5.95308771       1.01451589
H       -1.87769990     -11.27185530       4.37508209
H       -0.18715740     -11.15592658       3.85119517
H       -1.45847957     -11.58420488       2.69092804
H       -1.36106678      -5.23289262       3.25157325
H       -2.28097684      -5.75746392       4.65862403
H       -3.08373563      -5.64139296       3.08700369
C       -2.22849944      -8.57701950       5.43466167
C       -2.56205243      -8.67398472       6.58955394
Br      -3.10137940      -8.83076928       8.45691706
