90
Properties=species:S:1:pos:R:3 pbc="F F F"
C        1.79341610       1.79341610      -1.79341610
C        2.86829410       1.22417120      -2.47139184
C        3.68494417       2.01547446      -3.28194742
C        3.39162795       3.38049476      -3.38901507
N        4.01375262       4.38194342      -4.10279369
H        4.82793574       4.24210334      -4.68673007
C        3.37247757       5.57511964      -3.90442021
C        2.31778684       5.34954172      -3.04977684
C        2.31791366       3.96695363      -2.71605591
C        1.50182757       3.15778751      -1.90160001
H        3.07352113       0.16135696      -2.37049514
H        3.72041541       6.47887504      -4.38665048
H        1.61889544       6.09853098      -2.70042622
H        0.66169660       3.59408226      -1.36956955
C        4.79628842       1.42603722      -3.98271678
C        5.72703924       0.93238354      -4.56961112
Br       7.23198458       0.13418728      -5.51856962
C       -1.79341610      -1.79341610      -1.79341610
C       -2.77382596      -1.20320450      -2.58682667
C       -3.58901797      -1.99418633      -3.39916174
C       -3.39098310      -3.38035832      -3.38979636
N       -4.03489731      -4.38665044      -4.07694199
H       -4.79425989      -4.23464868      -4.72786059
C       -3.49902264      -5.60322443      -3.74977034
C       -2.49197845      -5.38821193      -2.83691502
C       -2.41266067      -3.98798696      -2.60027558
C       -1.59697496      -3.17890610      -1.78533402
H       -2.90619449      -0.12421879      -2.57495995
H       -3.87888880      -6.51407638      -4.19297574
H       -1.87627861      -6.15566625      -2.38590778
H       -0.83018752      -3.63147573      -1.16368516
C       -4.60263825      -1.38306024      -4.21934394
C       -5.45154523      -0.87124214      -4.90624653
Br      -6.82415601      -0.04367555      -6.01690993
C       -1.79341610       1.79341610       1.79341610
C       -1.30652360       3.02026727       2.23706626
C       -2.09910756       3.83928075       3.04397773
C       -3.38108643       3.39271983       3.38733152
N       -4.36357275       3.97985138       4.15506561
H       -4.27154639       4.88226997       4.60295279
C       -5.46488724       3.16905463       4.21807554
C       -5.19773166       2.03763647       3.48173726
C       -3.88437905       2.16553049       2.95101367
C       -3.07484796       1.34877086       2.13759627
H       -0.30721963       3.34269621       1.95545740
H       -6.34085437       3.46571199       4.77937457
H       -5.87420388       1.20492206       3.33872669
H       -3.44719095       0.39062327       1.78753420
C       -1.59486303       5.10783968       3.50233971
C       -1.17255824       6.17025778       3.88621788
Br      -0.48972711       7.88809799       4.50691639
C        1.79341610      -1.79341610       1.79341610
C        1.23163191      -2.89000286       2.44222237
C        2.02305790      -3.70701003       3.25229812
C        3.38056889      -3.39184366       3.38872523
N        4.38032235      -4.00903572       4.10913167
H        4.24483066      -4.83587155       4.67606695
C        5.56519085      -3.34358735       3.94323921
C        5.33581709      -2.27785168       3.10343663
C        3.95948735      -2.29618867       2.74524719
C        3.15027708      -1.47997413       1.93096388
H        0.17456860      -3.11196366       2.31884097
H        6.46646019      -3.68429136       4.43518937
H        6.07824016      -1.55985435       2.77975812
H        3.58076791      -0.62295524       1.42162527
C        1.44134010      -4.84081587       3.92288645
C        0.95415144      -5.79037827       4.48450419
Br       0.16640859      -7.32574034       5.39259256
C       -0.00445707       0.01189536      -1.78238275
H       -0.66409135       0.67374010      -2.43557963
H        0.65740317      -0.63156657      -2.45157240
C       -0.90989263      -0.90692880      -0.91072765
C        0.90977584       0.90977584      -0.90977584
C       -0.00465871       1.77757030       0.00794375
H       -0.66225468       2.44313916      -0.64384735
H        0.64322798       2.43503045       0.67728295
C       -1.78241447       0.00034974      -0.00472694
H       -2.45427497      -0.65498947       0.64260836
H       -2.43311707       0.67328779      -0.65473579
C       -0.91132561       0.90220522       0.91563759
C       -0.01476271      -0.02253852       1.78660255
H       -0.67934791      -0.69751639       2.42135241
H        0.63392994       0.61504881       2.47327442
C        0.01484550      -1.77751727      -0.01636693
H        0.67870853      -2.42144646      -0.68295456
H       -0.62264859      -2.45592969       0.64226336
C        1.78714474       0.01002794       0.00389507
H        2.44202412       0.67113390       0.66197326
H        2.45385902      -0.65136977      -0.64189061
C        0.91606151      -0.90478549       0.90901405
