125
Properties=species:S:1:pos:R:3 pbc="F F F"
C        0.00000000       0.00000000       0.00000000
C        0.88211077       0.88211077      -0.88211077
C        1.21668415       0.45902904      -2.16534725
C        2.03410875       1.25934072      -2.96084652
C        2.50975328       2.48166502      -2.47350851
C        2.15802380       2.92887297      -1.19229764
C        1.34543319       2.10466314      -0.39523353
C        2.61902520       4.21829142      -0.65932498
N        2.86219621       4.34456594       0.65386969
N        3.20146472       5.63366829       0.82596578
C        3.44602620       6.09011115       2.17693681
C        3.22307871       6.37004549      -0.33557960
C        3.53358184       7.80242551      -0.42100860
C        2.67454489       8.67126909      -1.11172604
C        2.95753200      10.03544486      -1.20888705
C        4.09699154      10.55616727      -0.59873615
C        4.95260912       9.70282758       0.09133663
Br       6.49183578      10.40735706       0.93615670
C        4.68690444       8.33412100       0.17205247
C        2.83702504       5.46649375      -1.31745912
Cl       2.62705327       5.79740392      -2.97812873
H        0.85366705      -0.49049362      -2.54971798
H        2.30817405       0.93092896      -3.96025181
H        3.16992649       3.06425633      -3.11008314
H        1.07595273       2.42295398       0.60992876
H        3.02426231       7.08934180       2.30486285
H        4.52548614       6.09299861       2.34481926
H        2.96397396       5.40639707       2.88080064
H        1.76983681       8.29358433      -1.58420231
H        2.28538050      10.69092988      -1.75940194
H        4.30683063      11.61944461      -0.67173864
H        5.38805251       7.68537831       0.69040839
C       -0.88211077      -0.88211077      -0.88211077
C       -0.93094398      -2.25465535      -0.65546111
C       -1.72465676      -3.05756575      -1.47207348
C       -2.47073136      -2.48570482      -2.50849064
C       -2.44852389      -1.10150184      -2.72916869
C       -1.63194057      -0.30568564      -1.90770365
C       -3.23918561      -0.46549384      -3.79196216
N       -2.76044150       0.62206626      -4.41451721
N       -3.72779904       0.99047158      -5.27183978
C       -3.52272479       2.20090896      -6.03738471
C       -4.82903226       0.16636121      -5.26603276
C       -6.03222911       0.35994366      -6.08473049
C       -7.30301938       0.33490375      -5.48942440
C       -8.45869844       0.51050264      -6.25366811
C       -8.35991421       0.73364042      -7.62562117
C       -7.10389122       0.76371989      -8.22392875
Br      -6.96322559       1.08348959     -10.08330014
C       -5.94606206       0.56560221      -7.46851312
C       -4.53441926      -0.78693852      -4.29962012
Cl      -5.54270326      -2.06684227      -3.79304039
H       -0.35191739      -2.70653985       0.14556583
H       -1.75995138      -4.13159881      -1.30780462
H       -3.05358128      -3.14644684      -3.14423785
H       -1.58423783       0.76879328      -2.07353340
H       -4.46212592       2.75426716      -6.10088249
H       -3.16301436       1.91897867      -7.02962980
H       -2.77580220       2.82198755      -5.53575574
H       -7.40799580       0.17800440      -4.41763205
H       -9.43572063       0.47543701      -5.77542871
H       -9.26253365       0.87716644      -8.21264668
H       -4.97980999       0.56281218      -7.96602462
C       -0.88211077       0.88211077       0.88211077
C       -0.90344432       2.25898235       0.67863376
C       -1.69739886       3.06149740       1.49539972
C       -2.47113330       2.48505298       2.50874054
C       -2.47651325       1.09709330       2.70558786
C       -1.65948873       0.30135459       1.88448654
C       -3.29638133       0.45684655       3.74341373
N       -2.84728561      -0.64941254       4.35501939
N       -3.83562462      -1.01553179       5.18907441
C       -3.66471779      -2.24230912       5.93679187
C       -4.92229821      -0.17235896       5.17876455
C       -6.14273500      -0.35893155       5.97321250
C       -7.40233155      -0.30152585       5.35673432
C       -8.57400656      -0.47001555       6.09787289
C       -8.50300921      -0.71833107       7.46721681
C       -7.25831427      -0.78056869       8.08635450
Br      -7.15560706      -1.13457428       9.94200337
C       -6.08425773      -0.58975579       7.35447103
C       -4.59457190       0.79208507       4.23432093
Cl      -5.57177451       2.09787902       3.73293239
H       -0.30287088       2.71436452      -0.10434400
H       -1.71140382       4.13864113       1.34930986
H       -3.05357053       3.14486481       3.14583063
H       -1.63311424      -0.77647806       2.03234177
H       -4.61443253      -2.78020390       5.97451263
H       -3.31758973      -1.98374927       6.93982503
H       -2.91991647      -2.86763077       5.43728469
H       -7.48589075      -0.12446701       4.28619972
H       -9.54179310      -0.40971853       5.60363775
H       -9.41805912      -0.85613346       8.03608822
H       -5.12692525      -0.61235102       7.86844820
C        0.88211077      -0.88211077       0.88211077
C        0.86709735      -0.71055684       2.26340625
C        1.68465157      -1.50659551       3.06304891
C        2.51001373      -2.47459236       2.48032072
C        2.51379889      -2.67284037       1.09255515
C        1.69566605      -1.85271247       0.29695134
C        3.34902297      -3.69717926       0.45043938
N        3.85347541      -3.47129601      -0.77187897
N        4.50550213      -4.60072973      -1.09706462
C        5.09408667      -4.68139583      -2.41628195
C        4.48020356      -5.56705052      -0.11855028
C        5.08996829      -6.89784377      -0.23079611
C        4.34077274      -8.04566149       0.07110580
C        4.90641321      -9.31907229      -0.02362160
C        6.22770071      -9.46559059      -0.44139634
C        6.97706951      -8.33336810      -0.74633753
Br       8.76598740      -8.52762732      -1.33057857
C        6.42385792      -7.05620461      -0.63108956
C        3.72208833      -5.00061188       0.89827771
Cl       3.29000638      -5.73697957       2.37559996
H        0.23105226       0.04126664       2.72310579
H        1.68610326      -1.37153102       4.14172054
H        3.15674200      -3.05521647       3.13230749
H        1.69733712      -1.97593565      -0.78429482
H        4.94420139      -5.68488094      -2.82034108
H        6.15726839      -4.44577230      -2.32937520
H        4.60679359      -3.95572252      -3.07294572
H        3.30212361      -7.96074782       0.38475202
H        4.31275502     -10.19623369       0.22672361
H        6.65883009     -10.45948309      -0.52029930
H        7.04081744      -6.18750166      -0.84529666
