146
Properties=species:S:1:pos:R:3 pbc="F F F"
C        1.79201480       1.79201480      -1.79201480
C        2.12658817       1.36893306      -3.07525128
C        2.94401277       2.16924474      -3.87075054
C        3.41965731       3.39156905      -3.38341254
C        3.06792783       3.83877699      -2.10220167
C        2.25533722       3.01456716      -1.30513755
C        3.52892922       5.12819545      -1.56922901
N        3.77210024       5.25446996      -0.25603433
N        4.11136875       6.54357232      -0.08393824
C        4.35593023       7.00001518       1.26703279
C        4.13298273       7.27994952      -1.24548363
C        4.44348586       8.71232953      -1.33091262
C        3.58444891       9.58117311      -2.02163007
C        3.86743602      10.94534888      -2.11879107
C        5.00689556      11.46607129      -1.50864017
C        5.86251315      10.61273161      -0.81856740
Br       7.40173981      11.31726108       0.02625267
C        5.59680847       9.24402502      -0.73785156
C        3.74692906       6.37639777      -2.22736315
Cl       3.53695729       6.70730794      -3.88803276
H        1.76357107       0.41941040      -3.45962201
H        3.21807807       1.84083298      -4.87015583
H        4.07983052       3.97416036      -4.01998717
H        1.98585675       3.33285801      -0.29997526
H        3.93416633       7.99924583       1.39495883
H        5.43539016       7.00290263       1.43491523
H        3.87387798       6.31630110       1.97089662
H        2.67974084       9.20348835      -2.49410633
H        3.19528453      11.60083390      -2.66930597
H        5.21673466      12.52934864      -1.58164266
H        6.29795654       8.59528233      -0.21949563
C       -1.79201480      -1.79201480      -1.79201480
C       -1.91144639      -3.14979663      -1.50952949
C       -2.70459324      -3.95370800      -2.32570682
C       -3.37969366      -3.39725970      -3.41768553
C       -3.28657307      -2.02644239      -3.69589103
C       -2.47112117      -1.23036969      -2.87355107
C       -4.00220021      -1.40524341      -4.81891005
N       -3.44949138      -0.36781639      -5.46529676
N       -4.36212836       0.00294848      -6.37969943
C       -4.07101755       1.16831223      -7.18620730
C       -5.49817036      -0.77245420      -6.38779132
C       -6.65561863      -0.56442172      -7.26668767
C       -7.95045743      -0.50883398      -6.72796069
C       -9.06359626      -0.31835232      -7.54962739
C       -8.89666364      -0.16085857      -8.92408482
C       -7.61621219      -0.21092106      -9.46667889
Br      -7.38242782       0.01956118     -11.32988158
C       -6.50155295      -0.42436295      -8.65276914
C       -5.28765831      -1.69350959      -5.36952208
Cl      -6.37251880      -2.90552749      -4.85425170
H       -1.38771939      -3.58985239      -0.66503170
H       -2.79458030      -5.01689530      -2.11759129
H       -3.96375553      -4.06020646      -4.05001605
H       -2.36866324      -0.16733508      -3.08269170
H       -4.98132358       1.75779262      -7.31492236
H       -3.68228205       0.82747365      -8.14856917
H       -3.31924802       1.77872062      -6.67875506
H       -8.10784505      -0.61330037      -5.65619010
H      -10.06068594      -0.29048504      -7.11425342
H       -9.76619454      -0.00528176      -9.55624966
H       -5.51607600      -0.49041261      -9.10624589
C       -1.79201480       1.79201480       1.79201480
C       -1.85839458       3.16137283       1.55100510
C       -2.65195947       3.96453386       2.36751473
C       -3.38038942       3.39602213       3.41822734
C       -3.34056897       2.01465193       3.65368558
C       -2.52426702       1.21877959       2.83199532
C       -4.11258876       1.38180595       4.73195897
N       -3.61517749       0.30642491       5.36100213
N       -4.56904778      -0.06303032       6.23286185
C       -4.34236813      -1.26267777       7.00922225
C       -5.67927171       0.74894379       6.23020037
C       -6.87129489       0.55130162       7.06413151
C       -8.14868137       0.55597696       6.48259376
C       -9.29398221       0.37623428       7.26135949
C       -9.17783940       0.16927877       8.63448886
C       -7.91513039       0.15943689       9.21924487
Br      -7.75074916      -0.13832554      11.08032461
C       -6.76783127       0.36181610       8.44903767
C       -5.40568128       1.69470944       5.25029926
Cl      -6.43342251       2.95792824       4.74094724
H       -1.29311436       3.61069370       0.73879542
H       -2.70084255       5.03624900       2.19197533
H       -3.96352042       4.05733633       4.05312129
H       -2.46295543       0.14677072       3.00896387
H       -5.27488363      -1.82548609       7.08905579
H       -3.97501102      -0.96596251       7.99432905
H       -3.59416178      -1.88107496       6.50619564
H       -8.26702380       0.69993421       5.41037751
H      -10.27647306       0.39541521       6.79353612
H      -10.07239036       0.02240857       9.23292703
H       -5.79631584       0.38058104       8.93583762
C        1.79201480      -1.79201480       1.79201480
C        1.84389704      -1.56284631       3.16402916
C        2.66156851      -2.35966632       3.96277323
C        3.42010192      -3.38579122       3.38874576
C        3.35562485      -3.64138833       2.01189330
C        2.53854934      -2.82032989       1.21616270
C        4.11909717      -4.72664307       1.38061344
N        4.57913100      -4.57367016       0.12980337
N        5.16908810      -5.74276464      -0.17297343
C        5.69620033      -5.90344758      -1.51073530
C        5.14609892      -6.66568194       0.84663501
C        5.69473279      -8.02511661       0.76687862
C        4.91235139      -9.12594330       1.14895741
C        5.42007742     -10.42546343       1.08603513
C        6.71484233     -10.64620034       0.62056436
C        7.49661856      -9.56107437       0.23611923
Br       9.24899263      -9.85659859      -0.41284300
C        7.00234240      -8.25749512       0.31884752
C        4.45682096      -6.02530351       1.86856551
Cl       4.05889271      -6.68040098       3.39300431
H        1.26005495      -0.76579748       3.61675105
H        2.71528167      -2.18018184       5.03360338
H        4.06979858      -3.96631607       4.03786338
H        2.48833295      -2.98823618       0.14212089
H        5.48749661      -6.91539907      -1.86444235
H        6.77100096      -5.71063773      -1.47826112
H        5.21146429      -5.18522533      -2.17740715
H        3.89265797      -8.98324491       1.50143264
H        4.80194587     -11.26498649       1.39849203
H        7.10057335     -11.66022930       0.56692331
H        7.64494603      -7.42592492       0.04186355
C       -0.00445707       0.01189536      -1.78238275
H       -0.66409135       0.67374010      -2.43557963
H        0.65740317      -0.63156657      -2.45157240
C       -0.90989263      -0.90692880      -0.91072765
C        0.90977584       0.90977584      -0.90977584
C       -0.00465871       1.77757030       0.00794375
H       -0.66225468       2.44313916      -0.64384735
H        0.64322798       2.43503045       0.67728295
C       -1.78241447       0.00034974      -0.00472694
H       -2.45427497      -0.65498947       0.64260836
H       -2.43311707       0.67328779      -0.65473579
C       -0.91132561       0.90220522       0.91563759
C       -0.01476271      -0.02253852       1.78660255
H       -0.67934791      -0.69751639       2.42135241
H        0.63392994       0.61504881       2.47327442
C        0.01484550      -1.77751727      -0.01636693
H        0.67870853      -2.42144646      -0.68295456
H       -0.62264859      -2.45592969       0.64226336
C        1.78714474       0.01002794       0.00389507
H        2.44202412       0.67113390       0.66197326
H        2.45385902      -0.65136977      -0.64189061
C        0.91606151      -0.90478549       0.90901405
