146
Properties=species:S:1:pos:R:3 pbc="F F F"
C        1.79174198       1.79174198      -1.79174198
C        3.17267685       1.78889097      -1.61322298
C        3.98214458       2.59603189      -2.42151939
C        3.42099464       3.39665859      -3.42655145
C        2.02303509       3.39505982      -3.57646249
C        1.21010291       2.59764877      -2.76532551
C        4.24202292       4.23323410      -4.31244017
N        3.75350362       5.39910757      -4.76703777
N        4.70326186       5.88255166      -5.58541291
C        4.41921788       7.10461305      -6.30352308
C        5.82842185       5.09487361      -5.66665213
C        6.99821925       5.38754620      -6.50240707
C        7.65279617       6.62438345      -6.43013204
C        8.76422859       6.89350669      -7.23635292
C        9.24032967       5.91566083      -8.10650075
Br      10.75013996       6.27344596      -9.18572063
C        8.61373486       4.67669842      -8.18243676
C        7.49318450       4.41708290      -7.38756513
C        5.54341507       4.00724166      -4.85567715
Cl       6.54094642       2.64790436      -4.59322239
H        3.63111169       1.16868723      -0.84860972
H        5.05351924       2.59399535      -2.23736797
H        1.55649897       4.02114897      -4.33541134
H        0.13296490       2.61588827      -2.90470222
H        4.90392996       7.93051986      -5.77818156
H        3.33685677       7.26561154      -6.32743393
H        4.78939380       7.01725736      -7.32819263
H        7.31713474       7.39091613      -5.73448496
H        9.25364941       7.86151268      -7.16925229
H        8.98460660       3.90469333      -8.85102372
H        7.01085194       3.44452280      -7.46802604
C       -1.79174198      -1.79174198      -1.79174198
C       -3.15102615      -1.90993497      -1.51382968
C       -3.96057102      -2.71717416      -2.32195067
C       -3.42319517      -3.39639441      -3.42461511
C       -2.04506744      -3.27452021      -3.67496975
C       -1.23114967      -2.47689027      -2.86503724
C       -4.24817162      -4.22817537      -4.31135019
N       -3.71343369      -5.31617598      -4.89003929
N       -4.68674157      -5.81181518      -5.67266968
C       -4.37185794      -6.95256727      -6.50292881
C       -5.86898172      -5.11079943      -5.61016643
C       -7.07627323      -5.43271652      -6.37918277
C       -7.63172051      -6.71896323      -6.35662791
C       -8.78037749      -7.01504040      -7.09867031
C       -9.39280459      -6.01690875      -7.85277791
Br     -10.95249746      -6.41251301      -8.84429608
C       -8.86562032      -4.73047336      -7.87677636
C       -7.70809590      -4.44231261      -7.14742402
C       -5.60104331      -4.06591114      -4.73937943
Cl      -6.67096028      -2.81144786      -4.29966502
H       -3.59199927      -1.38462570      -0.67178367
H       -5.01156289      -2.81235859      -2.06096109
H       -1.59516899      -3.80545822      -4.51243207
H       -0.16974760      -2.40061373      -3.08319405
H       -4.75276603      -7.84980706      -6.01005829
H       -3.28586847      -7.02620296      -6.61783082
H       -4.82645121      -6.82033957      -7.48805302
H       -7.18791917      -7.50531927      -5.74929740
H       -9.19152105      -8.02069008      -7.07220324
H       -9.34271014      -3.94339509      -8.45421842
H       -7.30537613      -3.43172025      -7.18630439
C       -1.79174198       1.79174198       1.79174198
C       -1.22190436       2.52031700       2.83256944
C       -2.02898995       3.32972108       3.64098482
C       -3.40710254       3.43301118       3.40409097
C       -3.96170127       2.67499781       2.35785832
C       -3.16093411       1.85820419       1.55393888
C       -4.27935043       4.29508316       4.21326359
N       -5.55282531       3.93036720       4.43645646
N       -6.08916068       4.94098075       5.14108500
C       -7.49804632       4.87189183       5.45741586
C       -5.20587156       5.95613317       5.42794286
C       -5.54423325       7.17849924       6.16544003
C       -6.16357883       7.12260650       7.42112633
C       -6.48621623       8.29561092       8.11226104
C       -6.17075176       9.53383057       7.55790891
Br      -6.59358674      11.11848551       8.49723430
C       -5.54289225       9.61035466       6.31962312
C       -5.23707047       8.43664059       5.62412148
C       -4.02368838       5.56233823       4.82030727
Cl      -2.56280118       6.44302895       4.77624304
H       -0.15511434       2.46492142       3.02837288
H       -1.55875943       3.86240407       4.46371906
H       -5.03185943       2.71939579       2.16180406
H       -3.61689809       1.28470041       0.75195689
H       -7.60054932       4.52427455       6.48780750
H       -7.98593921       4.16564680       4.77831624
H       -7.94749466       5.85970032       5.32764881
H       -6.39005471       6.16556996       7.88691117
H       -6.97200120       8.23020094       9.08221223
H       -5.28410923      10.57172619       5.88448824
H       -4.75396455       8.51746110       4.65197513
C        1.79174198      -1.79174198       1.79174198
C        1.23268130      -2.47114535       2.87096415
C        2.03973866      -3.28050769       3.67944951
C        3.40623823      -3.43307717       3.40488929
C        3.95078499      -2.72395551       2.31981691
C        3.15039847      -1.90727046       1.51540824
C        4.27685246      -4.29703753       4.21380719
N        5.56687991      -3.96511012       4.38765893
N        6.09425386      -4.97027586       5.10669671
C        7.51362108      -4.93508812       5.37864480
C        5.19033973      -5.94883057       5.45077728
C        5.51462230      -7.15849673       6.21505350
C        6.17362335      -7.08426521       7.44942310
C        6.48224292      -8.24551325       8.16633203
C        6.11315777      -9.48942697       7.65990651
Br       6.51724084     -11.05763154       8.63443417
C        5.44557026      -9.58349114       6.44380863
C        5.15363797      -8.42218055       5.72201402
C        4.00231215      -5.53719761       4.86682412
Cl       2.51517311      -6.37353625       4.89336381
H        0.17453070      -2.37721021       3.09666773
H        1.57933280      -3.77375410       4.53179566
H        5.01262056      -2.80701401       2.09342470
H        3.59840415      -1.37218435       0.68296689
H        7.65802550      -4.56024053       6.39436534
H        8.00125415      -4.26470196       4.66394613
H        7.92924575      -5.93965892       5.26593913
H        6.44270517      -6.12118311       7.87864755
H        6.99931531      -8.16618429       9.11891477
H        5.14502288     -10.54899914       6.04630163
H        4.63871567      -8.51705358       4.76763153
C       -0.00445707       0.01189536      -1.78238275
H       -0.66409135       0.67374010      -2.43557963
H        0.65740317      -0.63156657      -2.45157240
C       -0.90989263      -0.90692880      -0.91072765
C        0.90977584       0.90977584      -0.90977584
C       -0.00465871       1.77757030       0.00794375
H       -0.66225468       2.44313916      -0.64384735
H        0.64322798       2.43503045       0.67728295
C       -1.78241447       0.00034974      -0.00472694
H       -2.45427497      -0.65498947       0.64260836
H       -2.43311707       0.67328779      -0.65473579
C       -0.91132561       0.90220522       0.91563759
C       -0.01476271      -0.02253852       1.78660255
H       -0.67934791      -0.69751639       2.42135241
H        0.63392994       0.61504881       2.47327442
C        0.01484550      -1.77751727      -0.01636693
H        0.67870853      -2.42144646      -0.68295456
H       -0.62264859      -2.45592969       0.64226336
C        1.78714474       0.01002794       0.00389507
H        2.44202412       0.67113390       0.66197326
H        2.45385902      -0.65136977      -0.64189061
C        0.91606151      -0.90478549       0.90901405
