82
Properties=species:S:1:pos:R:3 pbc="F F F"
Cl       1.38940895       3.58629817      -5.34584871
C        2.03567134       3.04825261      -3.84562444
C        1.27086769       2.23133254      -3.01860770
C        1.79873579       1.79873579      -1.79873579
C        3.10583044       2.14170610      -1.40183428
N        3.57705658       1.82108875      -0.11246339
C        3.83414415       3.00554715      -2.24241910
C        3.31390012       3.44294335      -3.46396591
H        0.26692958       1.94216877      -3.31876676
H        4.59113086       1.83353146      -0.03535501
H        3.15486912       0.98195348       0.27777105
H        3.89663399       4.09484929      -4.10994202
C        5.15513627       3.45003134      -1.88046104
C        6.26146716       3.82228685      -1.57732116
Br       8.05031065       4.42419253      -1.08716963
Cl      -5.65636522      -2.82939559      -1.83579503
C       -3.99177324      -2.69200616      -2.24576899
C       -3.15036444      -1.91016759      -1.46027590
C       -1.79873579      -1.79873579      -1.79873579
C       -1.25838516      -2.49137192      -2.89961374
N        0.06863309      -2.26252226      -3.31671955
C       -2.14738876      -3.23718928      -3.69753236
C       -3.50048451      -3.35392708      -3.36639779
H       -3.54781361      -1.38385336      -0.59619815
H        0.44554449      -3.00575279      -3.89980902
H        0.69160644      -1.99070204      -2.55995596
H       -4.16985440      -3.94880928      -3.98276162
C       -1.68472545      -3.92714856      -4.87375464
C       -1.29724493      -4.50498946      -5.85884079
Br      -0.67072169      -5.43930932      -7.45164180
Cl      -2.01769573       2.59919893       5.70466118
C       -2.32147219       2.59620322       4.01187299
C       -1.55055307       1.79592118       3.17433369
C       -1.79873579       1.79873579       1.79873579
C       -2.83907871       2.56797944       1.24231267
N       -2.99092751       2.67481446      -0.15513324
C       -3.56954362       3.39915995       2.11340682
C       -3.32793768       3.40259864       3.49027307
H       -0.75570999       1.18198995       3.59016517
H       -3.91649183       2.98464057      -0.44111508
H       -2.66693074       1.85532467      -0.66320385
H       -3.91341930       4.03656248       4.15144351
C       -4.61086085       4.25984255       1.61492524
C       -5.48296403       4.98066423       1.19744692
Br      -6.89308111       6.14617192       0.52241978
Cl       5.55136212      -3.15161329       1.61858043
C        3.94440799      -2.83931384       2.14582655
C        3.10309387      -2.05263441       1.36507965
C        1.79873579      -1.79873579       1.79873579
C        1.30201908      -2.35282691       2.99452483
N        0.03818127      -1.97820413       3.49422333
C        2.19452581      -3.10684704       3.78073754
C        3.50055128      -3.36556101       3.35469709
H        3.46510429      -1.63264778       0.43011304
H       -0.34482374      -2.63765398       4.16718708
H       -0.62414441      -1.71457366       2.76862231
H        4.17125934      -3.96515599       3.96500997
C        1.78166367      -3.65899933       5.04496565
C        1.43589163      -4.12142687       6.10375669
Br       0.87680748      -4.86913309       7.81573225
C       -0.00445707       0.01189536      -1.78238275
H       -0.66409135       0.67374010      -2.43557963
H        0.65740317      -0.63156657      -2.45157240
C       -0.90989263      -0.90692880      -0.91072765
C        0.90977584       0.90977584      -0.90977584
C       -0.00465871       1.77757030       0.00794375
H       -0.66225468       2.44313916      -0.64384735
H        0.64322798       2.43503045       0.67728295
C       -1.78241447       0.00034974      -0.00472694
H       -2.45427497      -0.65498947       0.64260836
H       -2.43311707       0.67328779      -0.65473579
C       -0.91132561       0.90220522       0.91563759
C       -0.01476271      -0.02253852       1.78660255
H       -0.67934791      -0.69751639       2.42135241
H        0.63392994       0.61504881       2.47327442
C        0.01484550      -1.77751727      -0.01636693
H        0.67870853      -2.42144646      -0.68295456
H       -0.62264859      -2.45592969       0.64226336
C        1.78714474       0.01002794       0.00389507
H        2.44202412       0.67113390       0.66197326
H        2.45385902      -0.65136977      -0.64189061
C        0.91606151      -0.90478549       0.90901405
