61
Properties=species:S:1:pos:R:3 pbc="F F F"
C        0.00000000       0.00000000       0.00000000
Cl       0.47950493       2.67639415      -4.43594469
C        1.12576732       2.13834859      -2.93572042
C        0.36096367       1.32142852      -2.10870367
C        0.88883177       0.88883177      -0.88883177
C        2.19592642       1.23180208      -0.49193025
N        2.66715256       0.91118473       0.79744063
C        2.92424013       2.09564313      -1.33251507
C        2.40399610       2.53303933      -2.55406189
H       -0.64297444       1.03226475      -2.40886274
H        3.68122683       0.92362743       0.87454901
H        2.24496510       0.07204946       1.18767507
H        2.98672996       3.18494527      -3.20003799
C        4.24523224       2.54012732      -0.97055701
C        5.35156314       2.91238283      -0.66741714
Br       7.14040663       3.51428850      -0.17726560
Cl      -1.12088298      -4.79714145      -1.67381934
C       -1.42547184      -3.10450122      -1.66986327
C       -0.63597515      -2.26357841      -0.89154230
C       -0.88883177      -0.88883177      -0.88883177
C       -1.90477125      -0.32796408      -1.68692342
N       -2.24501704       1.03516935      -1.57104897
C       -2.71212765      -1.21306238      -2.42720829
C       -2.46632871      -2.58916495      -2.43560366
H        0.16432942      -2.67841520      -0.28406727
H       -2.75321542       1.39716545      -2.37425528
H       -1.46663730       1.62599609      -1.28869828
H       -3.08762629      -3.25685850      -3.02722843
C       -3.80849963      -0.72460783      -3.22280911
C       -4.72671115      -0.31552716      -3.88912480
Br      -6.21138153       0.34592170      -4.96650091
Cl      -4.22555385       0.35097442       3.01531550
C       -2.83884950       1.06764824       2.29333859
C       -2.01658805       0.30328775       1.47122006
C       -0.88883177       0.88883177       0.88883177
C       -0.58402132       2.24967142       1.08596601
N        0.62702407       2.79477449       0.61314623
C       -1.41260902       2.98091002       1.95887928
C       -2.54231714       2.40322634       2.54555384
H       -2.24816941      -0.74385548       1.29383912
H        0.61351846       3.80876058       0.53506313
H        0.98316104       2.33251368      -0.22001316
H       -3.18212576       2.98696389       3.20262358
C       -1.13537004       4.36178198       2.25876455
C       -0.90318239       5.51826225       2.50991846
Br      -0.52775461       7.38819303       2.91601310
Cl       3.67873691      -3.67138695       0.24171991
C        2.59636203      -2.58427527       1.01919902
C        1.76490724      -1.77318692       0.25300170
C        0.88883177      -0.88883177       0.88883177
C        0.80135670      -0.82520682       2.29309522
N        0.02173385       0.16523411       2.92439691
C        1.68853201      -1.62782664       3.03603968
C        2.56786632      -2.51489991       2.40833109
H        1.80678223      -1.82341585      -0.83204504
H       -0.21464340      -0.05649248       3.88845617
H       -0.77896134       0.46501214       2.37331297
H        3.23341698      -3.14108432       2.99721192
C        1.70260216      -1.57819895       4.47511547
C        1.71438591      -1.53663575       5.68034144
Br       1.73343924      -1.46943159       7.62908991
