74
Properties=species:S:1:pos:R:3 pbc="F F F"
Cl       1.38940895       3.58629817      -5.34584871
C        2.03567134       3.04825261      -3.84562444
C        1.27086769       2.23133254      -3.01860770
C        1.79873579       1.79873579      -1.79873579
C        3.10583044       2.14170610      -1.40183428
N        3.57705658       1.82108875      -0.11246339
C        3.83414415       3.00554715      -2.24241910
Br       5.57948976       3.59281677      -1.76418618
C        3.31390012       3.44294335      -3.46396591
H        0.26692958       1.94216877      -3.31876676
H        4.59113086       1.83353146      -0.03535501
H        3.15486912       0.98195348       0.27777105
H        3.89663399       4.09484929      -4.10994202
Cl      -5.55428129      -3.14409646      -1.62317809
C       -3.94572845      -2.83587619      -2.14794375
C       -3.10440319      -2.04931246      -1.36709228
C       -1.79873579      -1.79873579      -1.79873579
C       -1.30079734      -2.35606177      -2.99251170
N       -0.03529291      -1.98481038      -3.49050544
C       -2.19324208      -3.10987902      -3.77898930
Br      -1.64596052      -3.84363933      -5.44689287
C       -3.50057154      -3.36528240      -3.35495545
H       -3.46739432      -1.62684684      -0.43362395
H        0.34773410      -2.64627707      -4.16147435
H        0.62614899      -1.72105737      -2.76414319
H       -4.17125887      -3.96476207      -3.96540436
Cl      -1.74423816       2.95776924       5.61954844
C       -2.19689876       2.76052805       3.97212158
C       -1.42906043       1.95393541       3.13781210
C       -1.79873579       1.79873579       1.79873579
C       -2.95560864       2.41286039       1.28090179
N       -3.24203392       2.36724043      -0.09866562
C       -3.68339178       3.25701605       2.14170257
Br      -5.21822295       4.19559212       1.52267764
C       -3.32073761       3.41794811       3.48212367
H       -0.54343317       1.45783615       3.52659580
H       -4.21555965       2.56303275      -0.31857508
H       -2.88566752       1.53401558      -0.56063154
H       -3.90421108       4.05894651       4.13826771
Cl       5.48242959      -3.31524293       1.52388331
C        3.91319192      -2.91415977       2.10219671
C        3.07222244      -2.12492998       1.32365552
C        1.79873579      -1.79873579       1.79873579
C        1.33095246      -2.28237650       3.03604186
N        0.10560489      -1.83469997       3.57030386
C        2.22458231      -3.04094563       3.81658246
Br       1.72105724      -3.67840946       5.53702601
C        3.49986014      -3.37170850       3.34924075
H        3.41111834      -1.75888998       0.35785680
H       -0.27503827      -2.44953076       4.28552484
H       -0.57556631      -1.57295105       2.86166682
H        4.17089916      -3.97387516       3.95665097
C       -0.00445707       0.01189536      -1.78238275
H       -0.66409135       0.67374010      -2.43557963
H        0.65740317      -0.63156657      -2.45157240
C       -0.90989263      -0.90692880      -0.91072765
C        0.90977584       0.90977584      -0.90977584
C       -0.00465871       1.77757030       0.00794375
H       -0.66225468       2.44313916      -0.64384735
H        0.64322798       2.43503045       0.67728295
C       -1.78241447       0.00034974      -0.00472694
H       -2.45427497      -0.65498947       0.64260836
H       -2.43311707       0.67328779      -0.65473579
C       -0.91132561       0.90220522       0.91563759
C       -0.01476271      -0.02253852       1.78660255
H       -0.67934791      -0.69751639       2.42135241
H        0.63392994       0.61504881       2.47327442
C        0.01484550      -1.77751727      -0.01636693
H        0.67870853      -2.42144646      -0.68295456
H       -0.62264859      -2.45592969       0.64226336
C        1.78714474       0.01002794       0.00389507
H        2.44202412       0.67113390       0.66197326
H        2.45385902      -0.65136977      -0.64189061
C        0.91606151      -0.90478549       0.90901405
