166
Properties=species:S:1:pos:R:3 pbc="F F F"
O        2.94543247       4.32348030      -6.32036969
C        3.90721094       4.63674345      -5.62678354
N        4.14536918       4.23151641      -4.32714899
C        3.32247597       3.40752210      -3.52562330
C        2.07657663       2.92631389      -3.92413219
C        1.31847844       2.12362047      -3.06628899
C        1.79669768       1.79669768      -1.79669768
C        3.04339190       2.27074356      -1.36712029
C        3.60126331       1.94253863      -0.01028702
C        3.79503422       3.07482332      -2.24639151
C        4.93169553       5.64512624      -6.14230884
H        4.81553129       6.54502093      -5.52078181
C        4.70876279       6.05920093      -7.63000992
H        3.77074059       6.59354476      -7.80064713
C        5.97546318       6.89494371      -7.86135356
C        6.91018371       5.75257106      -7.51089928
H        7.98215597       5.95919542      -7.54766775
C        6.45943731       4.59389800      -8.39928481
H        7.01625006       4.53235673      -9.33893199
O        6.70577244       3.42576072      -7.60942110
C        6.64811719       3.76524912      -6.28972276
O        6.73874272       2.98644534      -5.35563285
C        6.41774498       5.24036534      -6.15447079
H        6.98727226       5.66165174      -5.32200397
C        4.94633392       4.84155898      -8.55617119
H        4.34221038       3.96450188      -8.31433441
Br       4.49736948       5.28616749     -10.40232366
H        5.03244473       4.48700468      -3.91003272
H        1.65722229       3.15314564      -4.89877563
H        0.35216998       1.75844869      -3.40617609
H        4.57386794       2.41964022       0.15081893
H        3.74625161       0.86228556       0.09208040
H        2.93073239       2.30099280       0.77749380
H        4.76702593       3.43937352      -1.91995948
H        6.06139428       7.74300687      -7.17372162
H        6.09733072       7.25191795      -8.88754783
O       -4.67779270      -6.14779363      -2.76369613
C       -4.81697132      -5.53615409      -3.81761252
N       -4.25047029      -4.31667892      -4.13688537
C       -3.42882633      -3.51502878      -3.31176626
C       -3.11923710      -3.82026336      -1.98752225
C       -2.30611428      -2.96790166      -1.23437196
C       -1.79669768      -1.79669768      -1.79669768
C       -2.09572436      -1.46152602      -3.12400537
C       -1.56764392      -0.21287423      -3.77357081
C       -2.91319950      -2.33423904      -3.86881051
C       -5.76983180      -6.05881451      -4.89048430
H       -6.60334535      -5.34268150      -4.93530719
C       -6.36416483      -7.46510036      -4.56870845
H       -7.00378316      -7.47857454      -3.68257478
C       -7.09130177      -7.75019479      -5.89026389
C       -5.83093030      -7.61841347      -6.72431029
H       -5.93370118      -7.75173284      -7.80358512
C       -4.82652255      -8.56195420      -6.06414337
H       -4.81361785      -9.55835609      -6.51556483
O       -3.56040933      -7.92275914      -6.25778578
C       -3.75745672      -6.57768758      -6.36794477
O       -2.87599175      -5.74043638      -6.46439278
C       -5.22438953      -6.27335171      -6.31483988
H       -5.49386507      -5.47077576      -7.00628714
C       -5.23774304      -8.52714130      -4.57917975
H       -4.40330818      -8.30824791      -3.90949058
Br      -5.92377567     -10.26022645      -4.00185851
H       -4.37012002      -3.97601287      -5.08334924
H       -3.49157615      -4.71603906      -1.50152835
H       -2.07733229      -3.23431708      -0.20514540
H       -1.92607998      -0.11295116      -4.80365809
H       -0.47367885      -0.23393015      -3.80884777
H       -1.90204909       0.67501736      -3.22719966
H       -3.14227915      -2.08181519      -4.90226459
H       -7.84640161      -6.99590091      -6.13582025
H       -7.54467774      -8.74336451      -5.94875425
O       -6.35615611       4.23111524       3.00201111
C       -5.65893669       4.55375588       3.95804536
N       -4.33513367       4.21090787       4.15799303
C       -3.52884290       3.39921229       3.32756618
C       -3.99216036       2.75073257       2.18412978
C       -3.13129476       1.95584002       1.42125312
C       -1.79669768       1.79669768       1.79669768
C       -1.30454093       2.43226145       2.94445337
C        0.12556446       2.29317252       3.38648091
C       -2.18533020       3.23242311       3.69849574
C       -6.26645913       5.32469326       5.12797822
H       -6.26057223       4.63561534       5.98514647
C       -7.74106882       5.77255692       4.88434790
H       -8.44147250       4.93956882       4.78389116
C       -7.95726688       6.64739059       6.12710298
C       -6.80458002       7.57558731       5.79348673
H       -6.60549695       8.39094656       6.49257563
C       -7.06975209       8.02543368       4.35743435
H       -7.61991526       8.96915410       4.29846943
O       -5.76527040       8.18552994       3.79015391
C       -4.89573059       7.36315523       4.44420325
O       -3.72165134       7.20376605       4.15540352
C       -5.60816636       6.65038190       5.55403286
H       -4.97634189       6.55380862       6.44077746
C       -7.79242989       6.81278201       3.73885218
H       -7.34063146       6.47763779       2.80277742
Br      -9.64078737       7.25169938       3.29337388
H       -3.85386343       4.63197811       4.94364059
H       -5.02069790       2.83846317       1.84998248
H       -3.51947214       1.46603059       0.53129204
H        0.31524720       2.84403104       4.31390539
H        0.80168388       2.69377840       2.62436225
H        0.36752969       1.24287180       3.57888927
H       -1.80587524       3.73382595       4.58665774
H       -7.80906607       6.10317722       7.06587947
H       -8.92490224       7.15550589       6.15638836
O        5.59286274      -2.57278895       5.42363078
C        5.24894063      -3.72749259       5.19430470
N        4.28484458      -4.12971401       4.28947599
C        3.48128376      -3.30082229       3.47351532
C        3.50092311      -1.90789271       3.51820689
C        2.66559302      -1.15937543       2.68341945
C        1.79669768      -1.79669768       1.79669768
C        1.75153622      -3.19581188       1.73390765
C        0.83472091      -3.92647743       0.79289062
C        2.60321070      -3.93348216       2.57955619
C        5.82401672      -4.87917993       6.01593396
H        4.99159026      -5.27156083       6.61818296
C        6.95905546      -4.44459893       6.99431924
H        6.62391448      -3.76182517       7.77919283
C        7.41572848      -5.82258012       7.49345185
C        7.74846801      -6.32426252       6.10092353
H        8.12420506      -7.34658958       6.01822450
C        8.67647826      -5.26094343       5.51519843
H        9.73628977      -5.48856866       5.66268036
O        8.36936674      -5.25451338       4.11707414
C        7.08297667      -5.67415564       3.94595676
O        6.48778286      -5.71088011       2.88215795
C        6.49115083      -6.05056083       5.27086945
H        5.84990567      -6.93200790       5.18901440
C        8.19109659      -3.96303412       6.18993338
H        7.98128087      -3.16303330       5.47673250
Br       9.55390841      -3.24451930       7.38743292
H        4.17478110      -5.12410197       4.13059905
H        4.15492968      -1.36313571       4.19107816
H        2.70617671      -0.07395225       2.73666581
H        0.92652606      -5.01219079       0.90397238
H        1.07982551      -3.68238996      -0.24575871
H       -0.20953993      -3.66773153       0.99603979
H        2.57688670      -5.02022002       2.52925221
H        6.61279641      -6.39318208       7.97214428
H        8.28208324      -5.79491246       8.15980079
C       -0.00445707       0.01189536      -1.78238275
H       -0.66409135       0.67374010      -2.43557963
H        0.65740317      -0.63156657      -2.45157240
C       -0.90989263      -0.90692880      -0.91072765
C        0.90977584       0.90977584      -0.90977584
C       -0.00465871       1.77757030       0.00794375
H       -0.66225468       2.44313916      -0.64384735
H        0.64322798       2.43503045       0.67728295
C       -1.78241447       0.00034974      -0.00472694
H       -2.45427497      -0.65498947       0.64260836
H       -2.43311707       0.67328779      -0.65473579
C       -0.91132561       0.90220522       0.91563759
C       -0.01476271      -0.02253852       1.78660255
H       -0.67934791      -0.69751639       2.42135241
H        0.63392994       0.61504881       2.47327442
C        0.01484550      -1.77751727      -0.01636693
H        0.67870853      -2.42144646      -0.68295456
H       -0.62264859      -2.45592969       0.64226336
C        1.78714474       0.01002794       0.00389507
H        2.44202412       0.67113390       0.66197326
H        2.45385902      -0.65136977      -0.64189061
C        0.91606151      -0.90478549       0.90901405
