145
Properties=species:S:1:pos:R:3 pbc="F F F"
C        0.00000000       0.00000000       0.00000000
O        3.37678370       2.19326032      -5.33673936
C        3.71886502       3.12678232      -4.61830958
N        3.37145935       3.31062385      -3.29409460
C        2.52721636       2.49038240      -2.50174482
C        1.80092618       1.42025875      -3.04232140
C        0.98415372       0.61794075      -2.23948232
C        0.88139925       0.88139925      -0.88139925
C        1.58000026       1.94723221      -0.32144455
C        2.39997007       2.76798508      -1.12107554
C        3.13755103       3.89487739      -0.44700267
C        4.52444408       4.28442502      -5.20724378
H        3.83788114       5.14254877      -5.25385709
C        5.03910114       4.00041963      -6.65370754
H        4.23964073       3.88678402      -7.39021190
C        5.93450603       5.22871184      -6.86333342
C        6.80402343       4.92108909      -5.65943617
H        7.61598868       5.61856556      -5.44216446
C        7.25185476       3.47366588      -5.85947988
H        8.22017373       3.38937447      -6.36059210
O        7.34416027       2.94485678      -4.53169136
C        6.49120826       3.63695300      -3.72070944
O        6.27370216       3.39096601      -2.54687708
C        5.82065895       4.72556413      -4.50338019
H        5.69995368       5.63309541      -3.90518550
C        6.06891072       2.84439225      -6.62146406
H        5.70189583       1.92563381      -6.15859036
Br       6.59170104       2.33991312      -8.43204594
H        3.85701338       4.04193504      -2.79020514
H        1.84286829       1.17471531      -4.09853566
H        0.44129802      -0.20814483      -2.69102119
H        1.49172244       2.14191432       0.74530635
H        2.95586829       4.84116030      -0.96661991
H        4.21102071       3.68405695      -0.42581302
H        2.80257525       4.03344579       0.58692447
H        5.39263266       6.17555152      -6.76781861
H        6.48795341       5.22561920      -7.80624668
O       -5.38946706      -2.29654283      -3.22077350
C       -4.65661666      -3.20181787      -3.60552239
N       -3.32301438      -3.36727165      -3.28589178
C       -2.51611012      -2.51852101      -2.48471245
C       -2.96937073      -1.27736365      -2.01677195
C       -2.16031493      -0.46286840      -1.21839345
C       -0.88139925      -0.88139925      -0.88139925
C       -0.40079310      -2.10265942      -1.34522450
C       -1.20319129      -2.92883267      -2.15700672
C       -0.62463160      -4.24281531      -2.61198417
C       -5.17595134      -4.22312966      -4.61703189
H       -4.66943240      -3.99778307      -5.56707153
C       -6.71550490      -4.12146773      -4.85625568
H       -7.02830422      -3.17788259      -5.31044984
C       -6.93009313      -5.35948015      -5.73697801
C       -6.37060584      -6.31412169      -4.69982116
H       -6.33778979      -7.37290822      -4.96602069
C       -7.15340374      -6.00819202      -3.42340476
H       -8.02667307      -6.65287853      -3.29058870
O       -6.21361736      -6.23939795      -2.36769310
C       -4.95111199      -6.04705419      -2.85070452
O       -3.92621521      -6.09280083      -2.19252921
C       -5.01287366      -5.72355525      -4.31317436
H       -4.18856221      -6.18817110      -4.86150129
C       -7.46959513      -4.50570358      -3.55946832
H       -7.17986287      -3.92609300      -2.68016413
Br      -9.38677670      -4.21003093      -3.76685248
H       -2.89388693      -4.24502598      -3.55024064
H       -3.95919723      -0.90178049      -2.25514154
H       -2.54716443       0.48993013      -0.86694008
H        0.60353350      -2.41961766      -1.07224626
H       -0.71592370      -4.35009887      -3.69762593
H       -1.13471032      -5.07263845      -2.11354191
H        0.44293801      -4.31548512      -2.37654946
H       -6.33978608      -5.33712534      -6.65909137
H       -7.97611343      -5.55835263      -5.98535323
O       -3.01394828       5.43999360       2.45284151
C       -3.50838243       4.67820786       3.27736663
N       -3.28916565       3.31751341       3.36949875
C       -2.48502629       2.51375110       2.52056619
C       -1.90254825       3.01340220       1.34755587
C       -1.10373918       2.20545117       0.53238644
C       -0.88139925       0.88139925       0.88139925
C       -1.46017704       0.35554336       2.03295662
C       -2.27358272       1.15704233       2.85840563
C       -2.85646899       0.52699185       4.09597024
C       -4.55281268       5.19917076       4.26412944
H       -5.51584533       4.77634885       3.94209283
C       -4.68297744       6.75505178       4.25519909
H       -5.04844096       7.16004680       3.30814887
C       -5.63237401       6.94931292       5.44486435
C       -4.70356799       6.25717527       6.42380545
H       -5.04491474       6.17383026       7.45797371
C       -3.36032497       6.96691565       6.25775990
H       -3.21612483       7.78462405       6.96939142
O       -2.38724007       5.94231161       6.49115672
C       -2.93722351       4.73208801       6.17955918
O       -2.35241379       3.66278142       6.19635003
C       -4.36622389       4.91727742       5.76610196
H       -4.99857926       4.10477979       6.13487554
C       -3.36972139       7.38958842       4.77545722
H       -2.47281482       7.07750914       4.23579604
Br      -3.42986067       9.33182966       4.60196978
H       -3.64193434       2.85141146       4.19580775
H       -2.04866238       4.03997161       1.02748527
H       -0.66177568       2.62827856      -0.36587985
H       -1.27645366      -0.68404603       2.29592278
H       -3.93864531       0.68694522       4.13805798
H       -2.38509420       0.94542778       4.99036869
H       -2.69713213      -0.55691789       4.10888233
H       -6.58732733       6.42783724       5.32083821
H       -5.82503940       7.99489606       5.69988383
O        1.80450856      -4.47402910       4.62824573
C        2.95634739      -4.19991476       4.30769476
N        3.34347440      -3.27873921       3.35396419
C        2.50393324      -2.48896933       2.52644101
C        1.11398003      -2.66539278       2.48413351
C        0.30517631      -1.86692616       1.66947431
C        0.88139925      -0.88139925       0.88139925
C        2.26078806      -0.69499407       0.89289489
C        3.08744662      -1.49829518       1.70328889
C        4.56971482      -1.23283358       1.67688268
C        4.12095112      -4.98584646       4.90931531
H        4.51017489      -5.62274591       4.10136619
C        3.69053457      -5.91374658       6.08894716
H        3.00965689      -6.71531750       5.79166226
C        5.06806899      -6.38791781       6.57056448
C        5.56708053      -4.98072332       6.83674484
H        6.58849564      -4.87837713       7.20984593
C        4.50163493      -4.35042919       7.73293640
H        4.72725707      -4.44402230       8.79886093
O        4.49516460      -2.96844219       7.35710162
C        4.92333557      -2.86041480       6.06512032
O        4.96566076      -1.82915235       5.41673213
C        5.29455075      -4.21470365       5.54034887
H        6.17636233      -4.16659181       4.89528045
C        3.20531750      -5.05020519       7.27924434
H        2.40479686      -4.34946608       7.03185706
Br       2.48603946      -6.17926187       8.69835877
H        4.32828578      -3.04879317       3.31207461
H        0.61436325      -3.42445268       3.07730333
H       -0.76977896      -2.02650103       1.66745232
H        2.69966098       0.08250825       0.27117768
H        5.12437973      -2.15648613       1.48278264
H        4.89263891      -0.79981818       2.62843359
H        4.83853913      -0.53021266       0.88034478
H        5.64019827      -6.90365831       5.79214620
H        5.04003220      -7.01176964       7.46801745
