166
Properties=species:S:1:pos:R:3 pbc="F F F"
O        4.28668773       3.10316434      -6.24664339
C        4.62876904       4.03668634      -5.52821360
N        4.28136337       4.22052788      -4.20399863
C        3.43712039       3.40028642      -3.41164885
C        2.71083020       2.33016277      -3.95222542
C        1.89405774       1.52784478      -3.14938634
C        1.79130328       1.79130328      -1.79130328
C        2.48990429       2.85713624      -1.23134857
C        3.30987410       3.67788910      -2.03097956
C        4.04745505       4.80478142      -1.35690669
C        5.43434810       5.19432905      -6.11714781
H        4.74778516       6.05245279      -6.16376112
C        5.94900516       4.91032365      -7.56361156
H        5.14954475       4.79668804      -8.30011592
C        6.84441005       6.13861586      -7.77323744
C        7.71392746       5.83099312      -6.56934019
H        8.52589271       6.52846959      -6.35206848
C        8.16175878       4.38356991      -6.76938390
H        9.13007775       4.29927850      -7.27049613
O        8.25406429       3.85476081      -5.44159538
C        7.40111229       4.54685702      -4.63061346
O        7.18360619       4.30087003      -3.45678110
C        6.73056298       5.63546815      -5.41328421
H        6.60985770       6.54299944      -4.81508953
C        6.97881474       3.75429627      -7.53136809
H        6.61179986       2.83553784      -7.06849438
Br       7.50160506       3.24981715      -9.34194997
H        4.76691741       4.95183906      -3.70010916
H        2.75277232       2.08461933      -5.00843968
H        1.35120205       0.70175920      -3.60092522
H        2.40162647       3.05181834      -0.16459768
H        3.86577232       5.75106432      -1.87652394
H        5.12092473       4.59396097      -1.33571704
H        3.71247927       4.94334981      -0.32297956
H        6.30253669       7.08545554      -7.67772263
H        7.39785743       6.13552323      -8.71615070
O       -5.32127913      -5.59608850      -2.71912783
C       -5.07985106      -5.24457157      -3.86924636
N       -4.18844654      -4.26242507      -4.25501826
C       -3.39839145      -3.43600175      -3.41466246
C       -3.54477171      -3.42783993      -2.02060676
C       -2.74642735      -2.61341319      -1.21144832
C       -1.79130328      -1.79130328      -1.79130328
C       -1.63538102      -1.76867596      -3.17433212
C       -2.43904687      -2.57855893      -4.00113696
C       -2.20721548      -2.51405612      -5.48787156
C       -5.87820024      -5.83805195      -5.02957277
H       -6.54099668      -5.03618310      -5.38681929
C       -6.77045521      -7.04708075      -4.60540443
H       -7.56297399      -6.78254272      -3.90083201
C       -7.26453257      -7.50906285      -5.98266793
C       -5.86331859      -7.73300987      -6.51793231
H       -5.77560414      -8.08146007      -7.54936657
C       -5.19018456      -8.63792073      -5.48660730
H       -5.26558024      -9.70050641      -5.73376573
O       -3.81688884      -8.23170766      -5.50182397
C       -3.74650228      -6.92864570      -5.90343478
O       -2.73076875      -6.25674170      -5.95374687
C       -5.11978763      -6.42614569      -6.23338203
H       -5.10530664      -5.76115678      -7.10148325
C       -5.87068477      -8.22816430      -4.16563003
H       -5.15787693      -7.98272648      -3.37522867
Br      -6.95237780      -9.68730609      -3.45368828
H       -3.98139918      -4.19404592      -5.24342053
H       -4.27947556      -4.04844306      -1.51791272
H       -2.88208927      -2.63829769      -0.13349950
H       -0.88151463      -1.12044960      -3.61607825
H       -3.14696175      -2.32851467      -6.01788415
H       -1.76090406      -3.44851043      -5.84118826
H       -1.52821590      -1.69645242      -5.75414032
H       -7.80965000      -6.73004422      -6.52602063
H       -7.86795707      -8.42055032      -5.96102397
O       -5.13521782       5.75389386       2.74738378
C       -4.99103784       5.31784066       3.88479049
N       -4.18825976       4.25806478       4.25956533
C       -3.39715325       3.43485814       3.41704426
C       -3.45275939       3.52138005       2.01907895
C       -2.65469361       2.70767783       1.20891742
C       -1.79130328       1.79130328       1.79130328
C       -1.72735601       1.67416764       3.17686545
C       -2.53214748       2.48261283       4.00398244
C       -2.40189745       2.31249771       5.49474800
C       -5.82544543       5.89003386       5.03034568
H       -6.55780504       5.11266528       5.29352875
C       -6.61271806       7.17818714       4.63203517
H       -7.37239489       7.00928561       3.86466821
C       -7.16620999       7.58636514       6.00368822
C       -5.79173028       7.68557846       6.63695204
H       -5.75018619       7.96394777       7.69229682
C       -4.99893060       8.60606844       5.70971356
H       -5.02521694       9.65422800       6.02040743
O       -3.65690767       8.11120814       5.78230467
C       -3.69250017       6.78423993       6.10184266
O       -2.72512093       6.04586607       6.17027032
C       -5.11245795       6.35293326       6.31392414
H       -5.19511586       5.63664363       7.13618718
C       -5.61580394       8.32288147       4.32579368
H       -4.86940821       8.08031785       3.56610601
Br      -6.55776506       9.89004687       3.64556024
H       -4.05051318       4.11613194       5.25222051
H       -4.11393335       4.21800047       1.51389751
H       -2.71817015       2.80711379       0.12860253
H       -1.04481787       0.95250939       3.62071523
H       -3.38370512       2.15646497       5.95319049
H       -1.92328790       3.19261529       5.93469955
H       -1.79285514       1.43772363       5.74822988
H       -7.79207153       6.81273552       6.46090781
H       -7.71015939       8.53479397       6.00457800
O        4.22518290      -3.14243818       6.26887438
C        4.59957430      -4.05472836       5.53936632
N        4.28166098      -4.21901902       4.20520988
C        3.43688555      -3.39979611       3.41237400
C        2.67918169      -2.35489604       3.95914067
C        1.86242491      -1.55284844       3.15601551
C        1.79130328      -1.79130328       1.79130328
C        2.52161997      -2.83206827       1.22470086
C        3.34200029      -3.65241801       2.02432446
C        4.11470754      -4.75120163       1.34323399
C        5.41633371      -5.20794478       6.12154647
H        4.74612548      -6.07999525       6.13787834
C        5.89707605      -4.94270185       7.58316247
H        5.08136900      -4.85922330       8.30575642
C        6.81239253      -6.15728359       7.78658724
C        7.69886349      -5.80904824       6.60634904
H        8.52854999      -6.48618393       6.39169685
C        8.11397013      -4.35744669       6.84329578
H        9.07051495      -4.26430693       7.36503050
O        8.22155359      -3.80075054       5.52811635
C        7.39838735      -4.49308348       4.68711194
O        7.19888995      -4.22816667       3.51420070
C        6.73445662      -5.60979983       5.43505890
H        6.64338967      -6.50747841       4.81707860
C        6.90421956      -3.76648079       7.59377875
H        6.52813864      -2.84603611       7.14165732
Br       7.38165386      -3.28790265       9.42381566
H        4.79129837      -4.93063895       3.69692831
H        2.69573178      -2.12955166       5.02054789
H        1.29464752      -0.74656659       3.61267235
H        2.45794929      -3.00726208       0.15283112
H        3.94174510      -5.71094028       1.84067519
H        5.18400022      -4.51919480       1.34740772
H        3.80268498      -4.87574454       0.30037912
H        6.29133555      -7.11239089       7.66198842
H        7.34725340      -6.16211877       8.74015919
C       -0.00445707       0.01189536      -1.78238275
H       -0.66409135       0.67374010      -2.43557963
H        0.65740317      -0.63156657      -2.45157240
C       -0.90989263      -0.90692880      -0.91072765
C        0.90977584       0.90977584      -0.90977584
C       -0.00465871       1.77757030       0.00794375
H       -0.66225468       2.44313916      -0.64384735
H        0.64322798       2.43503045       0.67728295
C       -1.78241447       0.00034974      -0.00472694
H       -2.45427497      -0.65498947       0.64260836
H       -2.43311707       0.67328779      -0.65473579
C       -0.91132561       0.90220522       0.91563759
C       -0.01476271      -0.02253852       1.78660255
H       -0.67934791      -0.69751639       2.42135241
H        0.63392994       0.61504881       2.47327442
C        0.01484550      -1.77751727      -0.01636693
H        0.67870853      -2.42144646      -0.68295456
H       -0.62264859      -2.45592969       0.64226336
C        1.78714474       0.01002794       0.00389507
H        2.44202412       0.67113390       0.66197326
H        2.45385902      -0.65136977      -0.64189061
C        0.91606151      -0.90478549       0.90901405
