133
Properties=species:S:1:pos:R:3 pbc="F F F"
C        0.00000000       0.00000000       0.00000000
C        0.88162908       0.88162908      -0.88162908
C        2.07054684       0.36988432      -1.40034064
C        2.88119539       1.17381089      -2.20820673
C        2.50410191       2.49584697      -2.48666318
C        1.29749682       2.99337183      -1.97576474
C        0.48879057       2.18774498      -1.16897267
C        3.33780970       3.39586470      -3.33322093
O        2.80929613       4.27637604      -4.00332449
N        4.70907167       3.18428156      -3.27349550
C        5.73409646       3.83767633      -3.93889272
S        7.26952864       3.26867203      -3.59860055
N        5.34179888       4.83013887      -4.79355292
C        6.03326213       5.77394854      -5.56087054
C        7.37158788       6.09895700      -5.41436041
C        7.93026620       7.07415315      -6.24174951
C        7.13938028       7.70483618      -7.19445321
C        5.79851446       7.34187356      -7.28246137
C        4.86337315       7.96655140      -8.27586362
N        5.24917727       6.39925267      -6.46702886
H        2.36909722      -0.65463253      -1.18960089
H        3.78266010       0.73759787      -2.62996127
H        0.98440341       4.01192198      -2.20106510
H       -0.44265807       2.58675954      -0.77460450
H        5.05526986       2.48732210      -2.62961004
H        4.33812587       4.88883981      -4.96933551
H        8.00441500       5.65511714      -4.66009243
H        8.97912247       7.33378946      -6.12473771
H        5.23370063       7.82600726      -9.29621254
H        4.74569967       9.03510300      -8.07124451
H        3.87245708       7.50371860      -8.21921700
C        7.74311471       8.70643358      -8.03463616
C        8.24874230       9.54527140      -8.73828938
Br       9.06629934      10.90160121      -9.87603713
C       -0.88162908      -0.88162908      -0.88162908
C       -2.05427068      -0.35981294      -1.42668819
C       -2.86485695      -1.16369762      -2.23465845
C       -2.50424133      -2.49557625      -2.48679449
C       -1.31357398      -3.00357044      -1.94948897
C       -0.50488642      -2.19797278      -1.14264902
C       -3.33878824      -3.39577896      -3.33232813
O       -2.81385382      -4.29469544      -3.98044739
N       -4.70733074      -3.16219862      -3.29731937
C       -5.73208121      -3.81005888      -3.96852542
S       -7.26348492      -3.21222801      -3.66108830
N       -5.34223898      -4.82168839      -4.80156331
C       -6.03648056      -5.76662352      -5.56497712
C       -7.38182251      -6.06865550      -5.43442727
C       -7.94287702      -7.04795356      -6.25533828
C       -7.14737515      -7.70556125      -7.18573328
C       -5.79980099      -7.36470847      -7.25833993
C       -4.85935790      -8.01917006      -8.22726022
N       -5.24841068      -6.41802099      -6.44902713
H       -2.33997217       0.67234976      -1.23644316
H       -3.75278883      -0.72030485      -2.67712555
H       -1.01301545      -4.03021950      -2.15415553
H        0.41402559      -2.60506600      -0.72766556
H       -5.05246047      -2.45000703      -2.66973450
H       -4.33701907      -4.89857832      -4.96070381
H       -8.01917016      -5.60338294      -4.69707147
H       -8.99734268      -7.28954758      -6.15075938
H       -5.21168736      -7.88891430      -9.25531877
H       -4.76157389      -9.08607627      -8.00439702
H       -3.86231472      -7.57082061      -8.16225736
C       -7.75369080      -8.71076051      -8.01973315
C       -8.26148016      -9.55261489      -8.71820804
Br      -9.08253260     -10.91382222      -9.84758285
C       -0.88162908       0.88162908       0.88162908
C       -0.38418089       2.09115025       1.36544067
C       -1.18809187       2.90177634       2.17334480
C       -2.48825175       2.49315610       2.50520421
C       -2.98449074       1.28469789       1.99744476
C       -2.17921657       0.47649989       1.18979177
C       -3.38053575       3.31571847       3.37064112
O       -4.59680596       3.27108190       3.22110879
N       -2.74611413       4.07760917       4.34312542
C       -3.28745310       4.94114537       5.28206704
S       -2.17076072       5.68727998       6.27876053
N       -4.64716412       5.07810585       5.24022071
C       -5.57610562       5.74814193       6.04383365
C       -5.32312437       6.25350109       7.30827983
C       -6.35131782       6.88855615       8.00629488
C       -7.60943756       7.00189709       7.42733503
C       -7.80206623       6.46171852       6.15906465
C       -9.12351371       6.53072283       5.45155164
N       -6.80271868       5.83063002       5.48211010
H        0.62266979       2.41516014       1.11157523
H       -0.78876120       3.85639383       2.50506420
H       -3.99920147       0.96607132       2.23211770
H       -2.57394337      -0.46112802       0.80589062
H       -1.74508941       3.98560543       4.44150716
H       -5.10799671       4.65396258       4.43434191
H       -4.36812665       6.14967594       7.80182198
H       -6.15570546       7.28133340       9.00061078
H       -9.44725656       7.57015485       5.33850902
H       -9.88253474       5.96697111       6.00254133
H       -9.04859311       6.09884420       4.44795537
C       -8.65072959       7.66283722       8.17061765
C       -9.52281167       8.21637458       8.79311684
Br     -10.93289463       9.11139766       9.79964539
C        0.88162908      -0.88162908       0.88162908
C        0.38893514      -2.09745152       1.35438515
C        1.19286397      -2.90810326       2.16224578
C        2.48817422      -2.49326599       2.50517186
C        2.97982043      -1.27835875       2.00845421
C        2.17454262      -0.47014542       1.20082019
C        3.38017864      -3.31565692       3.37105977
O        4.59707286      -3.26220298       3.22972081
N        2.74445666      -4.08792518       4.33446688
C        3.28532257      -4.95403011       5.27131283
S        2.16709150      -5.71381206       6.25589767
N        4.64613612      -5.08193940       5.23741516
C        5.57420485      -5.75117239       6.04270396
C        5.31635729      -6.26635471       7.30219328
C        6.34412801      -6.89928191       8.00275894
C        7.60666691      -7.00073989       7.43126288
C        7.80396296      -6.45110419       6.16778223
C        9.13036851      -6.50698389       5.46843577
N        6.80492680      -5.82209405       5.48843794
H       -0.61413096      -2.42629591       1.09190064
H        0.79760935      -3.86741182       2.48519806
H        3.99090506      -0.95472208       2.25176334
H        2.56564061       0.47248346       0.82554883
H        1.74224155      -4.00302345       4.42693700
H        5.10939480      -4.64960655       4.43729984
H        4.35754066      -6.17190146       7.79018244
H        6.14465882      -7.29976250       8.99322832
H        9.46157782      -7.54354921       5.35079341
H        9.88214113      -5.94193654       6.02796951
H        9.05912202      -6.06908893       4.46718173
C        8.64741168      -7.65976053       8.17701224
C        9.51903543      -8.21169031       8.80157734
Br      10.92837730      -9.10411410       9.81144628
