154
Properties=species:S:1:pos:R:3 pbc="F F F"
C        1.79153311       1.79153311      -1.79153311
C        2.98045086       1.27978835      -2.31024466
C        3.79109941       2.08371492      -3.11811076
C        3.41400594       3.40575100      -3.39656720
C        2.20740084       3.90327585      -2.88566877
C        1.39869460       3.09764901      -2.07887669
C        4.24771372       4.30576873      -4.24312496
O        3.71920015       5.18628006      -4.91322851
N        5.61897569       4.09418558      -4.18339952
C        6.64400048       4.74758035      -4.84879675
S        8.17943266       4.17857606      -4.50850458
N        6.25170290       5.74004290      -5.70345695
C        6.94316615       6.68385256      -6.47077456
C        8.28149190       7.00886102      -6.32426443
C        8.84017022       7.98405718      -7.15165353
C        8.04928431       8.61474021      -8.10435724
C        6.70841849       8.25177758      -8.19236539
C        5.77327718       8.87645542      -9.18576765
N        6.15908129       7.30915669      -7.37693288
H        3.27900124       0.25527149      -2.09950492
H        4.69256412       1.64750190      -3.53986529
H        1.89430743       4.92182600      -3.11096912
H        0.46724595       3.49666356      -1.68450853
H        5.96517389       3.39722612      -3.53951406
H        5.24802989       5.79874384      -5.87923953
H        8.91431902       6.56502117      -5.56999645
H        9.88902649       8.24369348      -7.03464173
H        6.14360465       8.73591129     -10.20611656
H        5.65560369       9.94500703      -8.98114854
H        4.78236110       8.41362262      -9.12912103
C        8.65301874       9.61633761      -8.94454019
C        9.15864632      10.45517543      -9.64819341
Br       9.97620336      11.81150524     -10.78594115
C       -1.79153311      -1.79153311      -1.79153311
C       -2.96004374      -1.26731764      -2.34312249
C       -3.77061419      -2.07119231      -3.15111859
C       -3.41417902      -3.40541300      -3.39673212
C       -2.22755966      -3.91590605      -2.85287976
C       -1.41887693      -3.11031548      -2.04602789
C       -4.24893730      -4.30565718      -4.24201293
O       -3.72498921      -5.20908432      -4.88463520
N       -5.61669179      -4.06667836      -4.21319065
C       -6.64134681      -4.71317839      -4.88585238
S       -8.17160131      -4.10827524      -4.58663675
N       -6.25221271      -5.72951138      -5.71347866
C       -6.94715659      -6.67471001      -6.47592667
C       -8.29414777      -6.97105574      -6.34941385
C       -8.85581804      -7.95135147      -7.16871142
C       -8.05928798      -8.61560516      -8.09348861
C       -6.71013763      -8.28022396      -8.16219988
C       -5.76850808      -8.94203822      -9.12495394
N       -6.15821276      -7.33254593      -7.35441218
H       -3.24248561      -0.23333582      -2.15795622
H       -4.65511713      -1.62609839      -3.59871579
H       -1.93018418      -4.94448720      -3.05243118
H       -0.50314832      -3.51933580      -1.62593393
H       -5.96148020      -3.35074463      -3.58968924
H       -5.24669236      -5.81088345      -5.86843745
H       -8.93252611      -6.50048872      -5.61632181
H       -9.91160383      -8.18847987      -7.06727801
H       -6.11637271      -8.81440016     -10.15485962
H       -5.67570495     -10.00844390      -8.89761041
H       -4.76999779      -8.49728133      -9.05782563
C       -8.66626840      -9.62167810      -8.92595003
C       -9.17461451     -10.46426418      -9.62313646
Br      -9.99656717     -11.82665462     -10.75042796
C       -1.79153311       1.79153311       1.79153311
C       -1.29290714       2.99945373       2.27812301
C       -2.09681371       3.81007331       3.08603807
C       -3.39817542       3.40303254       3.41511618
C       -3.89555144       2.19621185       2.90458218
C       -3.09027814       1.38801773       2.09692443
C       -4.29052908       4.22563875       4.28043957
O       -5.50662506       4.18322701       4.12885665
N       -3.65645425       4.98491213       5.25519442
C       -4.19791692       5.84780077       6.19465990
S       -3.08163767       6.59049301       7.19438262
N       -5.55733340       5.98704412       6.15082523
C       -6.48649183       6.65728474       6.95401671
C       -6.23474925       7.16017379       8.21969432
C       -7.26304423       7.79576693       8.91706976
C       -8.52003307       7.91209892       8.33624976
C       -8.71147363       7.37429844       7.06678939
C      -10.03165273       7.44660618       6.35724134
N       -7.71205234       6.74268459       6.39043394
H       -0.28511855       3.32223536       2.02642374
H       -1.69647183       4.76349816       3.41996132
H       -4.91116004       1.87885754       3.13708498
H       -3.48590352       0.45165979       1.71085474
H       -2.65574210       4.89111779       5.35505418
H       -6.01754173       5.56496351       5.34350802
H       -5.28072699       7.05399033       8.71461932
H       -7.06841343       8.18660720       9.91234108
H      -10.35351992       8.48674674       6.24536585
H      -10.79248634       6.88319633       6.90607659
H       -9.95579976       7.01623899       5.35306600
C       -9.56145825       8.57352477       9.07891352
C      -10.43365183       9.12746891       9.70089441
Br     -11.84391509      10.02314975      10.70658492
C        1.79153311      -1.79153311       1.79153311
C        1.29717386      -3.00517685       2.26813316
C        2.10109644      -3.81581973       3.07600892
C        3.39810509      -3.40313179       3.41508726
C        3.89136057      -2.19045472       2.91453017
C        3.08608405      -1.38224670       2.10688955
C        4.29020715      -4.22558177       4.28081849
O        5.50689695      -4.17518715       4.13662462
N        3.65492289      -4.99424854       5.24738936
C        4.19594981      -5.85946178       6.18496599
S        3.07823467      -6.61450773       7.17377090
N        5.55639260      -5.99051221       6.14829795
C        6.48476652      -6.66002247       6.95300428
C        6.22859962      -7.17179037       8.21422737
C        7.25652071      -7.80545502       8.91390519
C        8.51753773      -7.91104124       8.33980278
C        8.71322188      -7.36469270       7.07464688
C       10.03791966      -7.42513210       6.37244849
N        7.71407420      -6.73496212       6.39613455
H        0.29278239      -3.33234990       2.00864537
H        1.70441513      -4.77350712       3.40200906
H        4.90371563      -1.86855054       3.15483639
H        3.47845340      -0.44134714       1.72861751
H        2.65311200      -4.90688165       5.34192043
H        6.01881822      -5.56102357       5.34617147
H        5.27109947      -7.07408076       8.70415640
H        7.05838366      -8.20325796       9.90572009
H       10.36653238      -8.46270273       6.25639739
H       10.79221901      -6.86052352       6.92901673
H        9.96540219      -6.98932937       5.37037319
C        9.55847595      -8.57072687       9.08469371
C       10.43026170      -9.12321359       9.70853987
Br      11.83986554     -10.01653788      10.71724633
C       -0.00445707       0.01189536      -1.78238275
H       -0.66409135       0.67374010      -2.43557963
H        0.65740317      -0.63156657      -2.45157240
C       -0.90989263      -0.90692880      -0.91072765
C        0.90977584       0.90977584      -0.90977584
C       -0.00465871       1.77757030       0.00794375
H       -0.66225468       2.44313916      -0.64384735
H        0.64322798       2.43503045       0.67728295
C       -1.78241447       0.00034974      -0.00472694
H       -2.45427497      -0.65498947       0.64260836
H       -2.43311707       0.67328779      -0.65473579
C       -0.91132561       0.90220522       0.91563759
C       -0.01476271      -0.02253852       1.78660255
H       -0.67934791      -0.69751639       2.42135241
H        0.63392994       0.61504881       2.47327442
C        0.01484550      -1.77751727      -0.01636693
H        0.67870853      -2.42144646      -0.68295456
H       -0.62264859      -2.45592969       0.64226336
C        1.78714474       0.01002794       0.00389507
H        2.44202412       0.67113390       0.66197326
H        2.45385902      -0.65136977      -0.64189061
C        0.91606151      -0.90478549       0.90901405
