125
Properties=species:S:1:pos:R:3 pbc="F F F"
C        0.00000000       0.00000000       0.00000000
C        0.88162908       0.88162908      -0.88162908
C        2.07054684       0.36988432      -1.40034064
C        2.88119539       1.17381089      -2.20820673
C        2.50410191       2.49584697      -2.48666318
C        1.29749682       2.99337183      -1.97576474
C        0.48879057       2.18774498      -1.16897267
C        3.33780970       3.39586470      -3.33322093
O        2.80929613       4.27637604      -4.00332449
N        4.70907167       3.18428156      -3.27349550
C        5.73409646       3.83767633      -3.93889272
S        7.26952864       3.26867203      -3.59860055
N        5.34179888       4.83013887      -4.79355292
C        6.03326213       5.77394854      -5.56087054
C        7.37158788       6.09895700      -5.41436041
C        7.93026620       7.07415315      -6.24174951
C        7.13938028       7.70483618      -7.19445321
Br       7.93288577       9.02126439      -8.29872977
C        5.79851446       7.34187356      -7.28246137
C        4.86337315       7.96655140      -8.27586362
N        5.24917727       6.39925267      -6.46702886
H        2.36909722      -0.65463253      -1.18960089
H        3.78266010       0.73759787      -2.62996127
H        0.98440341       4.01192198      -2.20106510
H       -0.44265807       2.58675954      -0.77460450
H        5.05526986       2.48732210      -2.62961004
H        4.33812587       4.88883981      -4.96933551
H        8.00441500       5.65511714      -4.66009243
H        8.97912247       7.33378946      -6.12473771
H        5.23370063       7.82600726      -9.29621254
H        4.74569967       9.03510300      -8.07124451
H        3.87245708       7.50371860      -8.21921700
C       -0.88162908      -0.88162908      -0.88162908
C       -2.10946649      -0.39854741      -1.33275790
C       -2.92026349      -1.20259245      -2.14035708
C       -2.50371834      -2.49653635      -2.48635738
C       -1.25908822      -2.96440354      -2.04314164
C       -0.45033977      -2.15869762      -1.23647084
C       -3.33537261      -3.39595167      -3.33557105
O       -2.80057679      -4.22776060      -4.06065927
N       -4.71028140      -3.24235690      -3.21421042
C       -5.73520791      -3.91028395      -3.86517365
S       -7.27657074      -3.41733674      -3.44289375
N       -5.33952017      -4.85220704      -4.77376347
C       -6.02425638      -5.79267874      -5.55114608
C       -7.34196434      -6.17687135      -5.36606959
C       -7.89533066      -7.14099142      -6.20984677
C       -7.11966935      -7.70181339      -7.21718693
Br      -7.90543292      -9.00536720      -8.34207981
C       -5.79853655      -7.28189285      -7.34241999
C       -4.88072142      -7.82931868      -8.39574808
N       -5.25371567      -6.35021017      -6.51153295
H       -2.43878403       0.60414016      -1.06942170
H       -3.85425584      -0.78708424      -2.50887915
H       -0.91606951      -3.95998205      -2.32133892
H        0.51104138      -2.53479333      -0.89495403
H       -5.05698597      -2.58543740      -2.52977863
H       -4.34223787      -4.86349233      -4.99057099
H       -7.96057546      -5.78852370      -4.57052541
H       -8.92774918      -7.44708806      -6.06281240
H       -5.29709801      -7.66436180      -9.39446062
H       -4.71352650      -8.89938299      -8.23913770
H       -3.90702574      -7.32941847      -8.35894847
C       -0.88162908       0.88162908       0.88162908
C       -0.33590295       2.00743335       1.49743551
C       -1.13963476       2.81772017       2.30585809
C       -2.48925530       2.49185921       2.50549755
C       -3.03176464       1.36880366       1.86606510
C       -2.22651674       0.56080123       1.05819026
C       -3.38458070       3.31685196       3.36546267
O       -4.58470969       3.38196316       3.12232379
N       -2.77566585       3.95015113       4.44103174
C       -3.32505738       4.78201105       5.40359708
S       -2.23993715       5.35886288       6.53800119
N       -4.66288553       5.03115982       5.27144533
C       -5.60104926       5.71213690       6.05489504
C       -5.41402705       6.09946985       7.37140839
C       -6.44491958       6.76159286       8.03965642
C       -7.64012933       7.01920047       7.37933987
Br      -9.01443787       7.92020690       8.31823516
C       -7.76945921       6.59266782       6.06072237
C       -9.02053590       6.82093493       5.26431735
N       -6.76864291       5.93524449       5.41157140
H        0.70956347       2.26707417       1.34655488
H       -0.69818988       3.70946777       2.74256158
H       -4.08308982       1.11658319       1.99771748
H       -2.65789850      -0.31053192       0.57133940
H       -1.79555303       3.77044956       4.60619941
H       -5.08748728       4.70707312       4.40174079
H       -4.51248225       5.88220315       7.92493917
H       -6.30150016       7.06185511       9.07429437
H       -9.25548456       7.88866388       5.21177199
H       -9.86161179       6.28077159       5.70966381
H       -8.89723910       6.46063790       4.23751568
C        0.88162908      -0.88162908       0.88162908
C        0.34173230      -2.02017898       1.47886053
C        1.14548547      -2.83051730       2.28721025
C        2.48910523      -2.49204000       2.50546684
C        3.02607679      -1.35601050       1.88454610
C        2.22082715      -0.54797912       1.07670196
C        3.38403634      -3.31664712       3.36621187
O        4.58742487      -3.36580535       3.13576644
N        2.77039728      -3.96857567       4.42787577
C        3.31838224      -4.80500777       5.38727550
S        2.22731819      -5.40640311       6.50307993
N        4.66028116      -5.03790002       5.26730950
C        5.59728329      -5.71718366       6.05361425
C        5.40008553      -6.12121052       7.36360924
C        6.43086517      -6.77933536       8.03596832
C        7.63608168      -7.01636900       7.38621899
Br       9.00991421      -7.91257874       8.33038698
C        7.77518032      -6.57375997       6.07390910
C        9.03743041      -6.77932328       5.28903449
N        6.77431503      -5.92021551       5.42092825
H       -0.69904677      -2.28963403       1.31347833
H        0.70922236      -3.73189239       2.70910449
H        4.07300867      -1.09369591       2.03068591
H        2.64780899       0.33343220       0.60432919
H        1.78657998      -3.80154564       4.58407638
H        5.09080744      -4.69947377       4.40601998
H        4.49012520      -5.92008388       7.90941548
H        6.27940227      -7.09267849       9.06556889
H        9.28483486      -7.84374424       5.22734133
H        9.86746913      -6.23491737       5.74966069
H        8.92145409      -6.40898123       4.26495736
