146
Properties=species:S:1:pos:R:3 pbc="F F F"
C        1.79153311       1.79153311      -1.79153311
C        2.98045086       1.27978835      -2.31024466
C        3.79109941       2.08371492      -3.11811076
C        3.41400594       3.40575100      -3.39656720
C        2.20740084       3.90327585      -2.88566877
C        1.39869460       3.09764901      -2.07887669
C        4.24771372       4.30576873      -4.24312496
O        3.71920015       5.18628006      -4.91322851
N        5.61897569       4.09418558      -4.18339952
C        6.64400048       4.74758035      -4.84879675
S        8.17943266       4.17857606      -4.50850458
N        6.25170290       5.74004290      -5.70345695
C        6.94316615       6.68385256      -6.47077456
C        8.28149190       7.00886102      -6.32426443
C        8.84017022       7.98405718      -7.15165353
C        8.04928431       8.61474021      -8.10435724
Br       8.84278979       9.93116841      -9.20863380
C        6.70841849       8.25177758      -8.19236539
C        5.77327718       8.87645542      -9.18576765
N        6.15908129       7.30915669      -7.37693288
H        3.27900124       0.25527149      -2.09950492
H        4.69256412       1.64750190      -3.53986529
H        1.89430743       4.92182600      -3.11096912
H        0.46724595       3.49666356      -1.68450853
H        5.96517389       3.39722612      -3.53951406
H        5.24802989       5.79874384      -5.87923953
H        8.91431902       6.56502117      -5.56999645
H        9.88902649       8.24369348      -7.03464173
H        6.14360465       8.73591129     -10.20611656
H        5.65560369       9.94500703      -8.98114854
H        4.78236110       8.41362262      -9.12912103
C       -1.79153311      -1.79153311      -1.79153311
C       -3.01640083      -1.30600603      -2.24807702
C       -3.82718652      -2.11004100      -3.05569757
C       -3.41365446      -3.40638540      -3.39628427
C       -2.17192095      -3.87677631      -2.94764820
C       -1.36317559      -3.07107695      -2.14096776
C       -4.24546807      -4.30585572      -4.24528361
O       -3.71102323      -5.14164540      -4.96604009
N       -5.62025968      -4.14753235      -4.12876878
C       -6.64523621      -4.81427733      -4.78086404
S       -8.18635532      -4.31512479      -4.36503319
N       -6.24966723      -5.76032222      -5.68521330
C       -6.93492144      -6.70108509      -6.46178674
C       -8.25441921      -7.08052249      -6.27967566
C       -8.80816998      -8.04555919      -7.12215175
C       -8.03111085      -8.61202076      -8.12525013
Br      -8.81744426      -9.91664459      -9.24850315
C       -6.70826414      -8.19667688      -8.24762044
C       -5.78886480      -8.75033753      -9.29629791
N       -6.16312083      -7.26409111      -7.41795893
H       -3.34336832      -0.30145280      -1.98895653
H       -4.75868744      -1.69275349      -3.42849037
H       -1.83118293      -4.87431098      -3.22160866
H       -0.40407583      -3.44912453      -1.79521768
H       -5.96704113      -3.48735369      -3.44751925
H       -5.25174549      -5.77544667      -5.89882110
H       -8.87430717      -6.68770136      -5.48732811
H       -9.84201333      -8.34792366      -6.97742472
H       -6.20155782      -8.58723276     -10.29684192
H       -5.62555916      -9.82042300      -9.13577710
H       -4.81371025      -8.25340300      -9.25799150
C       -1.79153311       1.79153311       1.79153311
C       -1.24528604       2.91614640       2.40905145
C       -2.04901594       3.72642841       3.21748074
C       -3.39917330       3.40174661       3.41540423
C       -3.94217656       2.27990291       2.77426600
C       -3.13692879       1.47190317       1.96638834
C       -4.29453448       4.22677563       4.27529730
O       -5.49434635       4.29336569       4.03099668
N       -3.68607421       4.85834886       5.35213773
C       -4.23559999       5.68978546       6.31499214
S       -3.15105293       6.26436312       7.45109725
N       -5.57303620       5.94044039       6.18172616
C       -6.51130469       6.62157615       6.96491244
C       -6.32523538       7.00736911       8.28201286
C       -7.35613381       7.66986380       8.94988332
C       -8.55040181       7.92937215       8.28860779
Br      -9.92474868       8.83082487       9.22701845
C       -8.67881681       7.50432254       6.96942211
C       -9.92884226       7.73468702       6.17197097
N       -7.67800936       6.84653881       6.32062270
H       -0.19940025       3.17486995       2.25950746
H       -1.60710610       4.61727553       3.65554968
H       -4.99389379       2.02862541       2.90458336
H       -3.56870323       0.60151151       1.47820331
H       -2.70631568       4.67747387       5.51812453
H       -5.99707798       5.61767964       5.31125565
H       -5.42448128       6.78861194       8.83624342
H       -7.21346750       7.96891945       9.98497477
H      -10.16264364       8.80270944       6.12027943
H      -10.77092673       7.19493028       6.61590224
H       -9.80486212       7.37531527       5.14492736
C        1.79153311      -1.79153311       1.79153311
C        1.25047948      -2.92763408       2.39237032
C        2.05422840      -3.73796250       3.20073419
C        3.39903815      -3.40190888       3.41537710
C        3.93711020      -2.26837287       2.79086240
C        3.13186094      -1.46034707       1.98301229
C        4.29404669      -4.22658972       4.27597100
O        5.49682834      -4.27883141       4.04304897
N        3.68129498      -4.87491591       5.34034991
C        4.22954583      -5.71046345       6.30036830
S        3.13959629      -6.30711330       7.41980371
N        5.57068048      -5.94649914       6.17802313
C        6.50791167      -6.62610748       6.96377412
C        6.31266579      -7.02689594       8.27505563
C        7.34347433      -7.68579196       8.94661463
C        8.54677854      -7.92681229       8.29479092
Br       9.92071204      -8.82394663       9.23793333
C        8.68400341      -7.48732181       6.98123623
C        9.94411779      -7.69728474       6.19409772
N        7.68314094      -6.83302892       6.32900101
H        0.20877095      -3.19520378       2.22980292
H        1.61693991      -4.63748913       3.62550227
H        4.98491477      -2.00799813       2.93418966
H        3.55971675      -0.58087251       1.50782879
H        2.69817685      -4.70543473       5.49830250
H        6.00007831      -5.61084970       5.31508525
H        5.40431569      -6.82264081       8.82238013
H        7.19355453      -7.99659745       9.97720973
H       10.18910329      -8.76236549       6.13416372
H       10.77631239      -7.15367823       6.65176864
H        9.82673385      -7.32889337       5.16947754
C       -0.00445707       0.01189536      -1.78238275
H       -0.66409135       0.67374010      -2.43557963
H        0.65740317      -0.63156657      -2.45157240
C       -0.90989263      -0.90692880      -0.91072765
C        0.90977584       0.90977584      -0.90977584
C       -0.00465871       1.77757030       0.00794375
H       -0.66225468       2.44313916      -0.64384735
H        0.64322798       2.43503045       0.67728295
C       -1.78241447       0.00034974      -0.00472694
H       -2.45427497      -0.65498947       0.64260836
H       -2.43311707       0.67328779      -0.65473579
C       -0.91132561       0.90220522       0.91563759
C       -0.01476271      -0.02253852       1.78660255
H       -0.67934791      -0.69751639       2.42135241
H        0.63392994       0.61504881       2.47327442
C        0.01484550      -1.77751727      -0.01636693
H        0.67870853      -2.42144646      -0.68295456
H       -0.62264859      -2.45592969       0.64226336
C        1.78714474       0.01002794       0.00389507
H        2.44202412       0.67113390       0.66197326
H        2.45385902      -0.65136977      -0.64189061
C        0.91606151      -0.90478549       0.90901405
