109
Properties=species:S:1:pos:R:3 pbc="F F F"
C        0.00000000       0.00000000       0.00000000
C        1.95082844       3.89845599      -2.44546435
N        1.72620678       2.57910427      -1.90418832
C        0.72983272       2.22108134      -1.04907992
C        0.87100973       0.87100973      -0.87100973
C        1.99115993       0.48027624      -1.64264826
N        2.53232549       1.55643941      -2.26388815
C        2.55969904      -0.86643251      -1.81356232
O        1.93478232      -1.87852683      -1.51519103
N        3.81143555      -0.85324178      -2.40490166
C        4.63303658      -1.97493574      -2.66072084
C        5.61354232      -1.84621291      -3.65000262
F        5.75311224      -0.67533328      -4.29200519
C        6.43330790      -2.91793277      -4.00342142
F        7.34279266      -2.75230346      -4.97534669
C        6.30443583      -4.14252889      -3.35758559
C        5.37034190      -4.27182436      -2.33690187
F        5.25844593      -5.42590251      -1.66136918
C        4.55195274      -3.19806025      -1.98224699
F        3.76245489      -3.35388461      -0.91163515
H        1.43036110       4.63428550      -1.82664841
H        1.55536685       3.91758507      -3.46419817
H        3.02345594       4.10504658      -2.44285708
H        0.01633113       2.93228551      -0.65691540
H        4.06223617       0.04274598      -2.82386123
C        7.13888858      -5.25653685      -3.72673985
C        7.83774275      -6.18951852      -4.03590654
Br       8.96773085      -7.69807097      -4.53580294
C       -2.02965886      -3.91956327      -2.34552664
N       -1.76268341      -2.58628740      -1.86052856
C       -0.79320248      -2.23407029      -0.97272121
C       -0.87100973      -0.87100973      -0.87100973
C       -1.92822450      -0.46577971      -1.72008023
N       -2.49386892      -1.54476503      -2.31401909
C       -2.41474889       0.89695019      -1.98903014
O       -1.75265177       1.89058090      -1.70937566
N       -3.63386357       0.91562684      -2.64485870
C       -4.38046699       2.06223419      -3.00058887
C       -5.31510095       1.93073730      -4.03296838
F       -5.48423729       0.73585385      -4.62140070
C       -6.05759815       3.02220772      -4.48340611
F       -6.92425038       2.85123450      -5.49282000
C       -5.89645993       4.27140825      -3.89444084
C       -5.00967132       4.40750056      -2.83324865
F       -4.87072753       5.58881725      -2.21200233
C       -4.26871842       3.31412703      -2.38154810
F       -3.52724718       3.48665936      -1.27961761
H       -1.58117155      -4.64674650      -1.66337696
H       -1.58471472      -4.01299217      -3.33944320
H       -3.11053241      -4.07115378      -2.38967342
H       -0.13941597      -2.95855503      -0.50756104
H       -3.91056042       0.01241748      -3.03070044
C       -6.65055262       5.40495662      -4.36349557
C       -7.28210524       6.35430337      -4.75632890
Br      -8.30327241       7.88931678      -5.39150718
C       -3.88348341       1.91159857       2.49966680
N       -2.55921091       1.67408392       1.97620453
C       -2.18908002       0.64598562       1.16492834
C       -0.87100973       0.87100973       0.87100973
C       -0.50404630       2.05344020       1.55659793
N       -1.55683162       2.53335311       2.26246832
C        0.79728383       2.74087646       1.56323621
O        1.65970789       2.50811287       0.72304154
N        0.89397913       3.70469905       2.55237551
C        2.02567773       4.50008677       2.84441263
C        1.81268748       5.70138274       3.52863678
F        0.56669624       6.03775368       3.89872670
C        2.86502206       6.57193999       3.81187860
F        2.60689042       7.72379141       4.44893490
C        4.16360344       6.24921811       3.43387785
C        4.39955141       5.03568247       2.79928835
F        5.64883570       4.67433556       2.46841275
C        3.34613828       4.16397141       2.51830636
F        3.65945627       2.96182232       2.01783939
H       -4.46553963       0.98822769       2.43752768
H       -4.35134000       2.69185420       1.89395587
H       -3.80143276       2.22795312       3.54197373
H       -2.87535084      -0.13284419       0.86302539
H        0.00146606       3.94639558       2.98391387
C        5.25243025       7.14964835       3.71187347
C        6.16432271       7.90375867       3.94469481
Br       7.63877568       9.12309128       4.32114722
C        3.89724545      -2.45019423       1.94730910
N        2.57866779      -1.90625983       1.72457174
C        2.22029866      -1.05270182       0.72699351
C        0.87100973      -0.87100973       0.87100973
C        0.48112998      -1.63897883       1.99397562
N        1.55709589      -2.26151830       2.53403886
C       -0.86460359      -1.80524112       2.56619131
O       -1.87748722      -1.50592706       1.94300668
N       -0.84980468      -2.39357465       3.81932545
C       -1.97011565      -2.64467490       4.64426242
C       -1.84140907      -3.63188678       5.62685432
F       -0.67175349      -4.27639250       5.76514513
C       -2.91198731      -3.98071197       6.45007189
F       -2.74650498      -4.95082928       7.36151159
C       -4.13532378      -3.33221654       6.32259977
C       -4.26441409      -2.31348902       5.38634448
F       -5.41711976      -1.63542712       5.27560525
C       -3.19178528      -1.96342939       4.56449537
F       -3.34693191      -0.89435905       3.77277830
H        4.63330597      -1.83443170       1.42355734
H        3.91294389      -3.46992717       1.55427902
H        4.10644766      -2.44548879       3.01942315
H        2.93071547      -0.66399747       0.01081910
H        0.04577165      -2.81410106       4.06897068
C       -5.24819232      -3.69663873       7.16064516
C       -6.18021972      -4.00184232       7.86250818
Br      -7.68722920      -4.49533070       8.99736131
