129
Properties=species:S:1:pos:R:3 pbc="F F F"
C        0.00000000       0.00000000       0.00000000
C        0.88276290       0.88276290      -0.88276290
C        0.32273690       1.54587671      -1.97584038
C        1.12893747       2.35225421      -2.78068212
C        2.49190126       2.47578753      -2.49161290
C        3.05027531       1.81932711      -1.39029676
C        2.24051833       1.01638392      -0.58464640
S        3.50875501       3.53820907      -3.49975666
O        2.66518162       4.60084445      -4.00981316
O        4.69858940       3.84873235      -2.72974734
N        3.99263518       2.51355779      -4.75101984
N        3.04259182       1.81738152      -5.57157745
C        3.65807078       0.93886797      -6.37466221
H        4.73287905       0.78536645      -6.41028325
C        2.85909774       0.12277358      -7.31919744
C        3.54996618      -0.70218460      -8.21936697
C        2.85373748      -1.49100703      -9.13974470
C        1.46054835      -1.47998772      -9.18189913
C        0.75645720      -0.67193047      -8.29302092
C        1.45172707       0.11694601      -7.37749070
O        0.69202506       0.89083103      -6.53807480
H       -0.73025595       1.43663853      -2.21832314
H        0.70921738       2.86282889      -3.64523282
H        4.10960714       1.92314592      -1.17050435
H        2.67809486       0.49805851       0.26325785
H        4.96920506       2.22986554      -4.71776188
H        4.63602539      -0.72059611      -8.20241418
H        0.91780141      -2.08903818      -9.89727566
H       -0.32821875      -0.64473542      -8.30737517
H        1.36843458       1.39720349      -6.02258749
C        3.58306116      -2.32507264     -10.05953898
C        4.19386975      -3.02360259     -10.82986669
Br       5.18149557      -4.15306644     -12.07542145
C       -0.88276290      -0.88276290      -0.88276290
C       -1.87541039      -0.29818783      -1.67085576
C       -2.68024713      -1.10450319      -2.47712349
C       -2.49280788      -2.49063331      -2.47586050
C       -1.49134595      -3.07470872      -1.69384451
C       -0.68516654      -2.26519283      -0.89118928
S       -3.49762915      -3.51177807      -3.53731352
O       -3.85845788      -2.72048674      -4.69689461
O       -2.80441688      -4.77638713      -3.69626508
N       -4.85602849      -3.81812958      -2.58305475
N       -5.64723266      -2.75728174      -2.02703638
C       -6.55983280      -3.23932921      -1.17243895
H       -6.69260731      -4.29281095      -0.94311048
C       -7.49524341      -2.30987537      -0.49594997
C       -8.50641587      -2.86395872       0.30322603
C       -9.42401430      -2.04060783       0.96214698
C       -9.35362819      -0.65348310       0.84465154
C       -8.35387331      -0.08406743       0.06039309
C       -7.44101277      -0.90611056      -0.59904045
O       -6.48850632      -0.27501848      -1.35740610
H       -2.04028400       0.77522535      -1.65964707
H       -3.46825220      -0.66411553      -3.08491135
H       -1.34993596      -4.15230921      -1.70101223
H        0.08428860      -2.72147762      -0.27570650
H       -4.92211515      -4.76864219      -2.22607514
H       -8.57782642      -3.94332650       0.40330946
H      -10.06641538      -0.01226404       1.35264053
H       -8.27933995       0.99303012      -0.04811118
H       -5.99271516      -1.02608556      -1.76942483
C      -10.45844588      -2.63073522       1.77165360
C      -11.32478233      -3.12496691       2.44961539
Br     -12.72557509      -3.92409776       3.54582227
C       -0.88276290       0.88276290       0.88276290
C       -2.26565839       0.88514069       0.69365491
C       -3.07094992       1.69049274       1.50043114
C       -2.48230965       2.49699735       2.47999469
C       -1.09768975       2.48642158       2.67578786
C       -0.29495625       1.67682844       1.86976396
S       -3.51919325       3.49389693       3.53363056
O       -4.79299608       2.81531993       3.66752322
O       -2.73773954       3.83051150       4.70881805
N       -3.69674618       4.91712333       2.64334330
N       -4.21309538       4.91449074       1.30396466
C       -4.09891583       6.12718461       0.74550053
H       -3.68501103       6.99852592       1.24499180
C       -4.58846532       6.34838072      -0.63577728
C       -4.55312729       7.65622146      -1.14220020
C       -5.00699177       7.93097028      -2.43548691
C       -5.49991325       6.91431700      -3.25177050
C       -5.53814508       5.60872023      -2.76931767
C       -5.08823548       5.33606051      -1.47813221
O       -5.16158568       4.02899330      -1.06964808
H       -2.72666324       0.27770912      -0.07966664
H       -4.14905016       1.71421061       1.35401831
H       -0.64835925       3.11354837       3.44134979
H        0.78108993       1.67862801       2.01535743
H       -3.18787494       5.71774887       3.01120868
H       -4.17500364       8.46121840      -0.51837858
H       -5.85557638       7.12535222      -4.25488971
H       -5.91899288       4.80037202      -3.38494390
H       -4.85137725       4.06736464      -0.13051634
C       -4.96840739       9.28184585      -2.93272573
C       -4.93609296      10.41320414      -3.34916325
Br      -4.88384328      12.24251480      -4.02250750
C        0.88276290      -0.88276290       0.88276290
C        0.73499251      -0.83945115       2.27001033
C        1.54049871      -1.64620694       3.07516815
C        2.49661023      -2.47863255       2.48405891
C        2.63712347      -2.52915648       1.09361924
C        1.82725546      -1.72381214       0.29048104
S        3.49565292      -3.53587278       3.51519504
O        2.71764356      -3.86520098       4.69299469
O        4.02511316      -4.58619545       2.66576048
N        4.79520813      -2.53871457       3.92329011
N        4.60430051      -1.26670229       4.56054799
C        5.75751192      -0.58751891       4.62657014
H        6.71129883      -0.95673726       4.26049266
C        5.78637084       0.74987803       5.26457594
C        7.03177379       1.37829179       5.41366656
C        7.12619056       2.63734103       6.01362562
C        5.98806260       3.29826683       6.47266398
C        4.74210998       2.69349516       6.32893283
C        4.64916959       1.43631109       5.73330528
O        3.39073935       0.90097460       5.63116615
H        0.00951136      -0.17914264       2.73605172
H        1.44705035      -1.61138436       4.15884438
H        3.38019455      -3.18114191       0.64192096
H        1.94568882      -1.75563119      -0.78842450
H        5.67421739      -2.77438404       3.46823105
H        7.92945998       0.87599133       5.06437481
H        6.05890410       4.27425672       6.94139151
H        3.84170311       3.18708162       6.67979950
H        3.55587207       0.00711920       5.23947268
C        8.41546449       3.26105864       6.16312165
C        9.49523142       3.78342214       6.28832457
Br      11.24112320       4.62803973       6.49076711
