153
Properties=species:S:1:pos:R:3 pbc="F F F"
C        0.00000000       0.00000000       0.00000000
C        0.88242268       0.88242268      -0.88242268
C        2.10680377       0.39245717      -1.33889626
C        2.90596378       1.18452493      -2.16282747
C        2.47604471       2.46122792      -2.52784172
C        1.25095678       2.95593320      -2.05848339
C        0.44769038       2.16051514      -1.23379552
C        0.81446955       4.30464580      -2.50615751
O        1.19156242       4.74172291      -3.58840050
N        0.01975357       5.01468077      -1.63412983
C       -0.41103829       6.36617509      -1.92122396
C        0.70760730       7.40254913      -1.81309546
C        1.49300669       7.36706134      -0.50339936
N        0.71402962       7.79580446       0.64287964
C       -0.02167207       6.91225609       1.40582798
O       -0.09206594       5.71207239       1.16009336
C       -0.73974326       7.47793945       2.58537530
C       -1.05963758       8.83961980       2.69164077
C       -1.73221922       9.31875367       3.81922661
C       -2.10137093       8.44098192       4.83775787
C       -1.80247062       7.08455266       4.72300980
Br      -2.32201403       5.89411289       6.09641765
C       -1.12676732       6.59793288       3.60489435
H        2.44102393      -0.60582785      -1.06736296
H        3.85732503       0.80608907      -2.52862265
H        3.09485038       3.07213444      -3.18279655
H       -0.52002859       2.51734089      -0.89366393
H       -0.03514371       4.73357109      -0.65534468
H       -1.22795913       6.60094576      -1.23118702
H       -0.82487401       6.38475762      -2.93610016
H        0.27398756       8.39985881      -1.95776894
H        1.41640289       7.24769947      -2.63526468
H        2.33565028       8.06350971      -0.57724411
H        1.91058440       6.37321622      -0.31157013
H        0.85783381       8.74202295       0.96477546
H       -0.82042801       9.54364066       1.90036760
H       -1.97749056      10.37540753       3.89941461
H       -2.62821076       8.82096844       5.70957337
H       -0.89854359       5.53730674       3.52213521
C       -0.88242268      -0.88242268      -0.88242268
C       -0.31856880      -1.97198587      -1.54760254
C       -1.12315904      -2.79399461      -2.33616253
C       -2.48741051      -2.52381788      -2.45388596
C       -3.04952942      -1.42173393      -1.79411001
C       -2.24300354      -0.59820002      -1.00079748
C       -4.51397731      -1.19641917      -1.91487638
O       -5.26497131      -2.14628978      -2.11042474
N       -4.94400387       0.10920464      -1.83376495
C       -6.33538645       0.46721573      -2.00819003
C       -6.82203958       0.35159965      -3.45281196
C       -5.95829601       1.07744896      -4.48262034
N       -6.02219257       2.52213088      -4.36689275
C       -5.15016308       3.23681502      -3.57140799
O       -4.27867360       2.70746818      -2.88870766
C       -5.29541826       4.72200615      -3.57940878
C       -6.48189819       5.36157395      -3.96801721
C       -6.56503088       6.75670567      -3.95898263
C       -5.47184437       7.51890657      -3.54891532
C       -4.29988047       6.88342781      -3.14261957
Br      -2.82653719       7.91916148      -2.56830549
C       -4.20520586       5.49257513      -3.15364048
H        0.74122509      -2.19397596      -1.44980817
H       -0.69204027      -3.64922979      -2.85076669
H       -3.11619312      -3.17524057      -3.05834767
H       -2.67265352       0.23664271      -0.45496541
H       -4.27558865       0.87078578      -1.94896918
H       -6.45749684       1.48969830      -1.63637510
H       -6.93948058      -0.18728233      -1.36922086
H       -7.85225991       0.72517011      -3.50452551
H       -6.85957100      -0.70821750      -3.73157853
H       -6.32562200       0.83532731      -5.48610941
H       -4.91408920       0.75176198      -4.43304353
H       -6.62426199       3.00626653      -5.01708584
H       -7.36378466       4.79782796      -4.25688836
H       -7.48589500       7.24974111      -4.26234847
H       -5.54612739       8.60353786      -3.54059477
H       -3.28724973       5.00403343      -2.83341165
C       -0.88242268       0.88242268       0.88242268
C       -0.44574068       2.16115895       1.23125758
C       -1.25647478       2.97936073       2.01748067
C       -2.50025524       2.51585697       2.44900213
C       -2.93186000       1.22639941       2.10711396
C       -2.11973942       0.40609455       1.31616707
C       -4.28086845       0.79021398       2.55419043
O       -5.16375196       1.62207951       2.73585437
N       -4.44824764      -0.55807192       2.77838845
C       -5.69124677      -1.09954107       3.28465505
C       -5.94482039      -0.77943995       4.75787146
C       -4.79475272      -1.13103738       5.69975206
N       -4.58648969      -2.55983236       5.84029711
C       -3.73326252      -3.26460301       5.01609653
O       -3.11084885      -2.74560648       4.09467071
C       -3.57494225      -4.72123932       5.29911795
C       -4.52821823      -5.45775203       6.01787524
C       -4.33075955      -6.82053416       6.25708245
C       -3.19056787      -7.45738372       5.76866896
C       -2.25342301      -6.73076616       5.03641538
Br      -0.71862038      -7.60159842       4.35865924
C       -2.43855062      -5.36980497       4.79752556
H        0.51699248       2.53164600       0.88790552
H       -0.92602983       3.97967810       2.28632881
H       -3.13760127       3.16163392       3.05054617
H       -2.45802468      -0.58053780       1.01348934
H       -3.63127278      -1.15961195       2.88211123
H       -5.66615503      -2.18155080       3.11956940
H       -6.51151092      -0.69557138       2.68004424
H       -6.85629725      -1.30061882       5.07593687
H       -6.14696676       0.29353174       4.85886853
H       -5.03155276      -0.75728678       6.70213812
H       -3.85983196      -0.65335019       5.38888898
H       -4.96317936      -2.99701160       6.66891354
H       -5.44474289      -5.00176469       6.37986685
H       -5.07100702      -7.38857560       6.81607094
H       -3.04659122      -8.51872489       5.95531798
H       -1.70300745      -4.80996007       4.22358056
C        0.88242268      -0.88242268       0.88242268
C        1.79529279      -0.28809591       1.75476851
C        2.58717909      -1.08749117       2.57864592
C        2.46083893      -2.47654901       2.52772640
C        1.55138199      -3.07188882       1.64210256
C        0.75488188      -2.27002525       0.81709391
C        1.42118140      -4.55274032       1.65135115
O        1.66392193      -5.18178106       2.67598284
N        1.06078731      -5.14578332       0.46199354
C        0.97108054      -6.58343828       0.32184194
C        2.32959504      -7.28444449       0.30921236
C        3.33574908      -6.71940613      -0.69168782
N        2.97072946      -6.96950369      -2.07327871
C        2.19981571      -6.08777671      -2.80283638
O        1.74805893      -5.04708389      -2.33522973
C        1.93697860      -6.44384184      -4.22799955
C        2.03819389      -7.75807889      -4.70793134
C        1.78280224      -8.03777373      -6.05326813
C        1.41150446      -7.01200326      -6.92165460
C        1.29026928      -5.70953476      -6.44073181
Br       0.76731666      -4.32462687      -7.61626232
C        1.54853416      -5.41953149      -5.10179444
H        1.88928825       0.79377222       1.80704301
H        3.29474442      -0.63090492       3.26638741
H        3.06971032      -3.09799314       3.18207792
H        0.02050186      -2.71700125       0.15347311
H        1.14093428      -4.62253444      -0.40969666
H        0.41897026      -6.78667014      -0.60146677
H        0.37134316      -6.97122413       1.15341649
H        2.16940617      -8.35146508       0.11074405
H        2.77433713      -7.21589867       1.30913124
H        4.30244033      -7.21169303      -0.53772925
H        3.49197448      -5.64597359      -0.54257731
H        3.43703719      -7.73548873      -2.53744462
H        2.28822679      -8.58586169      -4.05124343
H        1.86363386      -9.05760827      -6.42273976
H        1.21030345      -7.23864466      -7.96576381
H        1.45008376      -4.40034138      -4.73379719
