153
Properties=species:S:1:pos:R:3 pbc="F F F"
C        0.00000000       0.00000000       0.00000000
C        0.85685454       0.85685454      -0.85685454
C        1.74104990       1.88502139      -0.22716343
N        2.53948394       2.69866157      -0.85538489
C        2.55357239       2.58003004      -2.21801291
C        3.25978746       3.24955063      -3.18624068
C        2.85778860       2.68287391      -4.41755037
N        1.93992107       1.71076046      -4.23811505
N        1.76134956       1.64922658      -2.89429328
C        0.91764753       0.79612785      -2.19364261
C        3.34365297       3.06167276      -5.75426974
O        4.14941049       3.96862190      -5.93696061
N        2.80417089       2.30458650      -6.77133655
C        3.15255703       2.49055389      -8.16247374
C        2.32965505       3.61026618      -8.79544233
C        2.77771551       3.93789851     -10.21683706
N        2.57343002       2.84881501     -11.15218952
N        3.59216831       2.01304642     -11.43429077
C        3.08419926       1.17661899     -12.35278023
C        3.93520061       0.11729685     -12.94646784
C        1.73587611       1.48654733     -12.62232157
C        1.42727490       2.56354833     -11.83491045
H        1.69810692       1.94425744       0.87374354
H        3.97873492       4.04148672      -3.02998270
H        0.33920268       0.10582290      -2.79193432
H        2.13068146       1.59636763      -6.49050840
H        2.96991106       1.53519791      -8.66324994
H        4.22252308       2.71691399      -8.22701105
H        2.41843964       4.52043407      -8.18983000
H        1.26786638       3.33425032      -8.78562964
H        3.83946135       4.21138766     -10.24420887
H        2.21101515       4.79551194     -10.59895583
H        3.40129690      -0.83764719     -12.98811710
H        4.84777938      -0.03861325     -12.36053455
H        4.22943686       0.39442384     -13.96415254
H        0.52314038       3.14189703     -11.71257913
C        0.86857581       0.80910704     -13.55101142
C        0.14221181       0.24175080     -14.32878918
Br      -1.03225735      -0.67561625     -15.58639002
C       -0.85685454      -0.85685454      -0.85685454
C       -1.59044895      -0.25203629      -2.01074948
N       -2.37100016      -0.88321123      -2.83931900
C       -2.51490935      -2.22439839      -2.61230759
C       -3.23578506      -3.19020485      -3.26958885
C       -2.98721377      -4.39617484      -2.57482427
N       -2.15827908      -4.20205160      -1.52846589
N       -1.86981364      -2.87637964      -1.55867615
C       -1.04441676      -2.17270574      -0.69029550
C       -3.53239955      -5.72309684      -2.90409908
O       -4.31678533      -5.90931741      -3.82889025
N       -3.08038832      -6.72571719      -2.07398842
C       -3.47125577      -8.10983828      -2.22449060
C       -4.80840795      -8.38605793      -1.54089767
C       -5.32631351      -9.79591723      -1.81022035
N       -4.48354649     -10.83671964      -1.25416842
N       -3.56533489     -11.43872251      -2.03544810
C       -3.01256827     -12.36461062      -1.23641959
C       -1.96439373     -13.27196119      -1.76261039
C       -3.57996695     -12.31775631       0.05297826
C       -4.52140204     -11.32389244       0.01956080
H       -1.44377653       0.83173899      -2.15658329
H       -3.85774755      -3.04996466      -4.14249213
H       -0.58308001      -2.75165617       0.09777628
H       -2.44849093      -6.43801981      -1.33104675
H       -2.67127200      -8.71257240      -1.78451452
H       -3.53169575      -8.34110630      -3.29364607
H       -5.55956119      -7.67105052      -1.89809201
H       -4.70905914      -8.21729117      -0.46139602
H       -5.42658622      -9.98208345      -2.88638821
H       -6.32062903      -9.92022266      -1.36463123
H       -1.13303061     -13.36273808      -1.05599812
H       -1.55521803     -12.90432544      -2.71015722
H       -2.38065403     -14.26949271      -1.93786649
H       -5.20261692     -10.93972893       0.76472930
C       -3.24057986     -13.15925739       1.17114297
C       -2.95634316     -13.86401455       2.10760592
Br      -2.49675647     -15.00354726       3.62178731
C       -0.85685454       0.85685454       0.85685454
C       -1.81805870       0.22390814       1.81126788
N       -2.62417181       0.85180499       2.61755359
C       -2.56519763       2.21752149       2.56889622
C       -3.24632958       3.18680957       3.26243963
C       -2.75191527       4.42202580       2.78427180
N       -1.81243462       4.24350411       1.83285784
N       -1.69934745       2.89691421       1.70860776
C       -0.85256838       2.19639362       0.85845601
C       -3.16839810       5.76167805       3.22951933
O       -4.04770946       5.94125967       4.06602385
N       -2.48029115       6.78502748       2.61477531
C       -2.71249962       8.18107569       2.91200935
C       -3.89273288       8.72936847       2.11326220
C       -4.26346993      10.15403179       2.51494938
N       -3.22624115      11.12459413       2.22359927
N       -2.36147349      11.48631425       3.19171775
C       -1.58850066      12.41600586       2.60909196
C       -0.52140008      13.09077479       3.38679044
C       -1.96661620      12.61256781       1.26556099
C       -3.01994276      11.76758577       1.03820516
H       -1.83049565      -0.87933983       1.81746500
H       -3.99957239       3.02910187       4.02153009
H       -0.21431311       2.79721361       0.22543318
H       -1.78943573       6.50493341       1.92318834
H       -1.78869095       8.71318205       2.66648591
H       -2.89613639       8.28307959       3.98723214
H       -4.77077932       8.09039275       2.26753164
H       -3.66159870       8.68444265       1.04170498
H       -4.49285747      10.21658875       3.58561166
H       -5.16023129      10.47428763       1.97096400
H        0.40740377      13.14911712       2.81005346
H       -0.30146256      12.55271481       4.31552331
H       -0.83043059      14.10783410       3.64974854
H       -3.62997315      11.58124822       0.16639518
C       -1.36794505      13.52990227       0.33084695
C       -0.86655796      14.29816988      -0.45197606
Br      -0.05585745      15.54039363      -1.71773466
C        0.85685454      -0.85685454       0.85685454
C        1.62871985      -1.98093518       0.24357968
N        2.41458673      -2.80536363       0.87358004
C        2.52902177      -2.60131355       2.22128001
C        3.25542915      -3.25428546       3.18586416
C        2.97521765      -2.58416964       4.39882559
N        2.11112260      -1.56520234       4.21247163
N        1.84569302      -1.57746691       2.88170950
C        1.01233705      -0.71528665       2.17979429
C        3.52588281      -2.90917584       5.72453683
O        4.28273450      -3.85541697       5.91684152
N        3.10633321      -2.05377649       6.71998423
C        3.53612493      -2.17395539       8.09550434
C        2.68853635      -3.19234757       8.85447963
C        3.21059489      -3.45843494      10.26342126
N        3.14038324      -2.30053688      11.13351442
N        4.22719449      -1.51983764      11.29247336
C        3.83736349      -0.59387691      12.18235808
C        4.79265604       0.44069924      12.64700851
C        2.49352533      -0.79339560      12.55782407
C        2.06393907      -1.89488391      11.86691070
H        1.50717631      -2.10719277      -0.84574825
H        3.91008983      -4.10171577       3.03839875
H        0.52120271       0.04957183       2.76532902
H        2.46181254      -1.32066878       6.43507617
H        3.44932053      -1.17838905       8.54064933
H        4.59138359      -2.46811429       8.10695024
H        2.67762768      -4.14321327       8.30786277
H        1.64831465      -2.84581693       8.89361475
H        4.25213147      -3.80132720      10.24159921
H        2.61771248      -4.24932536      10.73844508
H        4.32481787       1.43050944      12.65745837
H        5.67127214       0.49638471      11.99481324
H        5.13727561       0.20963264      13.66037027
H        1.11853333      -2.41690652      11.84217669
C        1.73648747      -0.00059461      13.49161220
C        1.10246826       0.66337623      14.27365975
Br       0.07731282       1.73696090      15.53816450
