145
Properties=species:S:1:pos:R:3 pbc="F F F"
C        0.00000000       0.00000000       0.00000000
C        0.85685454       0.85685454      -0.85685454
C        1.74104990       1.88502139      -0.22716343
N        2.53948394       2.69866157      -0.85538489
C        2.55357239       2.58003004      -2.21801291
C        3.25978746       3.24955063      -3.18624068
C        2.85778860       2.68287391      -4.41755037
N        1.93992107       1.71076046      -4.23811505
N        1.76134956       1.64922658      -2.89429328
C        0.91764753       0.79612785      -2.19364261
C        3.34365297       3.06167276      -5.75426974
O        4.14941049       3.96862190      -5.93696061
N        2.80417089       2.30458650      -6.77133655
C        3.15255703       2.49055389      -8.16247374
C        2.32965505       3.61026618      -8.79544233
C        2.77771551       3.93789851     -10.21683706
N        2.57343002       2.84881501     -11.15218952
N        3.59216831       2.01304642     -11.43429077
C        3.08419926       1.17661899     -12.35278023
C        3.93520061       0.11729685     -12.94646784
C        1.73587611       1.48654733     -12.62232157
Br       0.61077807       0.60774360     -13.82705669
C        1.42727490       2.56354833     -11.83491045
H        1.69810692       1.94425744       0.87374354
H        3.97873492       4.04148672      -3.02998270
H        0.33920268       0.10582290      -2.79193432
H        2.13068146       1.59636763      -6.49050840
H        2.96991106       1.53519791      -8.66324994
H        4.22252308       2.71691399      -8.22701105
H        2.41843964       4.52043407      -8.18983000
H        1.26786638       3.33425032      -8.78562964
H        3.83946135       4.21138766     -10.24420887
H        2.21101515       4.79551194     -10.59895583
H        3.40129690      -0.83764719     -12.98811710
H        4.84777938      -0.03861325     -12.36053455
H        4.22943686       0.39442384     -13.96415254
H        0.52314038       3.14189703     -11.71257913
C       -0.85685454      -0.85685454      -0.85685454
C       -1.54946889      -0.26260194      -2.04116388
N       -2.32542104      -0.89498209      -2.87312727
C       -2.50587314      -2.22683628      -2.61890591
C       -3.23394328      -3.19102132      -3.27061417
C       -3.02966562      -4.38575668      -2.54279058
N       -2.22058162      -4.18619866      -1.48201629
N       -1.90051968      -2.86854970      -1.53580005
C       -1.07895871      -2.16380339      -0.66465590
C       -3.59810982      -5.70720049      -2.85428516
O       -4.36526667      -5.89703168      -3.79269463
N       -3.18883548      -6.70018157      -1.99107688
C       -3.60847690      -8.07813801      -2.11896975
C       -4.96703248      -8.30758215      -1.46074892
C       -5.51152674      -9.71113863      -1.70978572
N       -4.70632693     -10.75764779      -1.11045983
N       -3.78482701     -11.39865290      -1.85602558
C       -3.27234201     -12.31797772      -1.02327875
C       -2.23394271     -13.26116531      -1.50385730
C       -3.86785630     -12.22794941       0.25106071
Br      -3.48660838     -13.29508767       1.73611769
C       -4.78473551     -11.21384981       0.17285163
H       -1.37414444       0.81381719      -2.20829358
H       -3.83230309      -3.05706956      -4.16083170
H       -0.64947514      -2.73454034       0.14705558
H       -2.56754460      -6.40969777      -1.24031512
H       -2.83311641      -8.68855412      -1.64668839
H       -3.64982700      -8.33294796      -3.18367316
H       -5.69285325      -7.58413133      -1.85171913
H       -4.88849565      -8.11588825      -0.38336244
H       -5.59147095      -9.92012340      -2.78346353
H       -6.51842182      -9.80217485      -1.28488626
H       -1.42132889     -13.35437016      -0.77606776
H       -1.79468114     -12.92529446      -2.44972508
H       -2.66933910     -14.25273830      -1.66593584
H       -5.47364305     -10.79683872       0.89286521
C       -0.85685454       0.85685454       0.85685454
C       -1.94963538       0.23652340       1.66707594
N       -2.77054227       0.86575329       2.45723483
C       -2.59436250       2.21984330       2.53740953
C       -3.25272281       3.18592366       3.25693229
C       -2.61635304       4.40671629       2.93514354
N       -1.61269193       4.22343111       2.05267353
N       -1.60087998       2.88709244       1.81689700
C       -0.74166760       2.18574577       0.98000463
C       -2.95888697       5.73700392       3.46370459
O       -3.89234846       5.92542532       4.23721921
N       -2.13549966       6.74133089       3.00326338
C       -2.27708320       8.12318812       3.40531334
C       -3.33065483       8.84036075       2.56434797
C       -3.61679801      10.25448967       3.06116340
N       -2.48056717      11.14802244       2.94584494
N       -1.67994069      11.34848232       4.01108248
C       -0.78300161      12.24951731       3.58107955
C        0.26161667      12.75814174       4.50244024
C       -1.02039258      12.59021528       2.23413714
Br      -0.04124964      13.80149993       1.20282880
C       -2.11525206      11.86578243       1.84469920
H       -2.05402324      -0.85777231       1.57236989
H       -4.08203314       3.03461806       3.93355315
H       -0.00113842       2.77676418       0.45905730
H       -1.41051665       6.45819204       2.34884880
H       -1.29391942       8.58804224       3.28639725
H       -2.54816242       8.15187654       4.46640916
H       -4.26900732       8.27287155       2.58682485
H       -3.00803590       8.86371723       1.51599321
H       -3.93614052      10.24854721       4.11037015
H       -4.43100186      10.69857452       2.47590654
H        1.24042125      12.77982672       4.01236134
H        0.35123968      12.12723609       5.39370427
H        0.01546652      13.77366864       4.82981112
H       -2.65723823      11.80834369       0.91203464
C        0.85685454      -0.85685454       0.85685454
C        0.22390322      -1.81273927       1.81659223
N        0.85180039      -2.61918947       2.62254053
C        2.21752520      -2.56921711       2.56487301
C        3.18682450      -3.26249455       3.24625972
C        4.42205427      -2.78273029       2.75342832
N        4.24352090      -1.83061398       1.81466169
N        2.89692175      -1.70750241       1.70044527
C        2.19639791      -0.85721567       0.85380442
C        5.76173230      -3.22712571       3.17073746
O        5.94127498      -4.06427612       4.04944190
N        6.78514805      -2.61080198       2.48414391
C        8.18125534      -2.90696175       2.71736757
C        8.72772040      -2.10879957       3.89884359
C       10.15241141      -2.50951395       4.27052573
N       11.12366111      -2.21631005       3.23446339
N       11.48707349      -3.18329493       2.36913708
C       12.41693949      -2.59909743       1.59756155
C       13.09341123      -3.37518662       0.53036746
C       12.61191107      -1.25573551       1.97709843
Br      13.80151109      -0.04137076       1.20269651
C       11.76574751      -1.03013288       3.02985330
H       -0.87934956      -1.81996616       1.82800422
H        3.02912298      -4.02242580       3.99865556
H        2.79722168      -0.22304919       0.21668904
H        6.50505296      -1.91883588       1.79366865
H        8.71398709      -2.66009394       1.79427788
H        8.28408299      -3.98225913       2.90010600
H        8.08807732      -2.26446981       4.77615658
H        8.68201800      -1.03707119       3.66865714
H       10.21574572      -3.58032950       4.49898266
H       10.47133672      -1.96606191       5.16808429
H       13.15207798      -2.79753821      -0.39784938
H       12.55641271      -4.30421214       0.30907583
H       14.11042738      -3.63749126       0.84009460
H       11.57804165      -0.15905920       3.64051570
