166
Properties=species:S:1:pos:R:3 pbc="F F F"
C        1.76675857       1.76675857      -1.76675857
C        2.65095392       2.79492541      -1.13706745
N        3.44938796       3.60856559      -1.76528891
C        3.46347641       3.48993406      -3.12791693
C        4.16969148       4.15945466      -4.09614470
C        3.76769263       3.59277793      -5.32745439
N        2.84982509       2.62066448      -5.14801907
N        2.67125359       2.55913061      -3.80419731
C        1.82755156       1.70603187      -3.10354664
C        4.25355700       3.97157679      -6.66417376
O        5.05931451       4.87852592      -6.84686463
N        3.71407492       3.21449052      -7.68124057
C        4.06246105       3.40045791      -9.07237776
C        3.23955907       4.52017020      -9.70534635
C        3.68761954       4.84780254     -11.12674108
N        3.48333404       3.75871903     -12.06209355
N        4.50207233       2.92295045     -12.34419479
C        3.99410328       2.08652302     -13.26268425
C        4.84510463       1.02720088     -13.85637187
C        2.64578013       2.39645135     -13.53222559
Br       1.52068210       1.51764763     -14.73696071
C        2.33717892       3.47345236     -12.74481448
H        2.60801094       2.85416147      -0.03616048
H        4.88863895       4.95139074      -3.93988673
H        1.24910670       1.01572693      -3.70183834
H        3.04058548       2.50627166      -7.40041242
H        3.87981509       2.44510193      -9.57315397
H        5.13242710       3.62681801      -9.13691507
H        3.32834367       5.43033809      -9.09973403
H        2.17777040       4.24415434      -9.69553366
H        4.74936538       5.12129168     -11.15411290
H        3.12091917       5.70541597     -11.50885985
H        4.31120092       0.07225683     -13.89802113
H        5.75768341       0.87129077     -13.27043857
H        5.13934089       1.30432786     -14.87405656
H        1.43304440       4.05180106     -12.62248316
C       -1.76675857      -1.76675857      -1.76675857
C       -1.73733227      -1.59402088      -3.25159364
N       -2.43239010      -2.27394658      -4.11690578
C       -3.25733319      -3.23102072      -3.59297350
C       -4.11382257      -4.12408788      -4.18738039
C       -4.69128499      -4.86551405      -3.13112591
N       -4.22970661      -4.45786293      -1.93093911
N       -3.35205984      -3.46368791      -2.21883374
C       -2.59749264      -2.71845592      -1.32118151
C       -5.67320836      -5.95412649      -3.26197270
O       -6.13089847      -6.31090539      -4.34290120
N       -6.02672528      -6.52455442      -2.05852631
C       -6.96225042      -7.62203046      -1.95101585
C       -8.40490363      -7.12186783      -1.93830416
C       -9.42179579      -8.25875793      -1.98160944
N       -9.38782491      -9.10892650      -0.80739521
N       -8.67936662     -10.25489563      -0.83495532
C       -8.90376286     -10.80708813       0.36754044
C       -8.31001679     -12.12337497       0.70471437
C       -9.73950855      -9.98425415       1.14930562
Br     -10.33226238     -10.32979520       2.88676715
C      -10.03504751      -8.89467865       0.37428040
H       -1.05695790      -0.81192910      -3.62944589
H       -4.29776151      -4.23541768      -5.24673724
H       -2.72923359      -2.96154387      -0.27589451
H       -5.59194602      -6.12433392      -1.23098962
H       -6.72038227      -8.15242700      -1.02526171
H       -6.79949304      -8.30312190      -2.79354525
H       -8.57803034      -6.47407128      -2.80631416
H       -8.56833618      -6.49925329      -1.04986894
H       -9.26840330      -8.89388857      -2.86247808
H      -10.43708504      -7.84963497      -2.04847499
H       -7.87932890     -12.11340020       1.71125022
H       -7.51117216     -12.39342050       0.00517991
H       -9.07529993     -12.90546269       0.66303731
H      -10.64029140      -8.01742253       0.55038531
C       -1.76675857       1.76675857       1.76675857
C       -2.93906800       1.16808920       2.47578958
N       -3.76892490       1.79969402       3.25462355
C       -3.52194038       3.13421185       3.42517517
C       -4.16663579       4.09581569       4.16283936
C       -3.44454271       5.29266026       3.95072198
N       -2.40195495       5.09979610       3.11675760
N       -2.45130431       3.78051498       2.80276221
C       -1.58454156       3.07738132       1.97520719
C       -3.74259944       6.60915805       4.53755006
O       -4.70843861       6.80908520       5.26718126
N       -2.83802919       7.58691517       4.18486164
C       -2.92536766       8.94994490       4.65998417
C       -3.88490581       9.77483198       3.80533784
C       -4.12015209      11.17331263       4.36869844
N       -2.93060158      12.00257986       4.37096518
N       -2.18490524      12.09470130       5.48961103
C       -1.21465657      12.96341629       5.16523769
C       -0.19987456      13.35621170       6.17259112
C       -1.35177256      13.39289750       3.82978702
Br      -0.24629095      14.59974476       2.92925473
C       -2.46048253      12.75809080       3.33687243
H       -3.09902040       0.08902834       2.31028415
H       -5.04200945       3.95640040       4.78150657
H       -0.78219478       3.65156511       1.53291208
H       -2.09239657       7.29831924       3.55655376
H       -1.91227103       9.36130500       4.62449495
H       -3.25718661       8.93500460       5.70396898
H       -4.85336595       9.26393588       3.74111395
H       -3.49955234       9.83785227       2.78005379
H       -4.50131128      11.12740447       5.39605421
H       -4.87173753      11.69737357       3.76608389
H        0.80607582      13.34703485       5.74051985
H       -0.19918657      12.67194535       7.02828084
H       -0.40758400      14.36457990       6.54556142
H       -2.94826744      12.78562991       2.37343127
C        1.76675857      -1.76675857       1.76675857
C        1.13893589      -2.81224090       2.63176999
N        1.76746200      -3.62870434       3.42707613
C        3.12885678      -3.49864394       3.45382668
C        4.09789627      -4.17568703       4.15170754
C        5.32809124      -3.59867982       3.76115389
N        5.14620440      -2.60384727       2.86845698
N        3.80322113      -2.55008398       2.68127640
C        3.10198836      -1.69159079       1.84355092
C        6.66628078      -3.99110325       4.23192353
O        6.84569855      -4.86771950       5.07128701
N        7.68813240      -3.27835949       3.64331412
C        9.08407910      -3.50889832       3.94231931
C        9.51467085      -2.75311401       5.19729076
C       10.93754986      -3.09450169       5.63011161
N       11.94632940      -2.68589244       4.67192478
N       12.41483517      -3.57759944       3.77678295
C       13.35014691      -2.89706985       3.09609380
C       14.13063373      -3.56888092       2.02916274
C       13.44303441      -1.56988564       3.56153703
Br      14.59979994      -0.24653102       2.92895947
C       12.52705431      -1.45539309       4.57299837
H        0.03918372      -2.88217889       2.57697027
H        3.94370582      -4.98678357       4.84942704
H        3.69882309      -0.98778350       1.28006538
H        7.40656779      -2.56331558       2.97738619
H        9.65222377      -3.17786928       3.06797794
H        9.24038260      -4.58568761       4.07008998
H        8.83711292      -2.99653697       6.02476589
H        9.41818201      -1.67384011       5.02543629
H       11.05165417      -4.17177099       5.80134479
H       11.17252073      -2.58844430       6.57422996
H       14.20687827      -2.93454343       1.14005718
H       13.66326976      -4.51179409       1.72434889
H       15.14244339      -3.79156192       2.38372000
H       12.25370554      -0.63421061       5.21941247
C       -0.00445707       0.01189536      -1.78238275
H       -0.66409135       0.67374010      -2.43557963
H        0.65740317      -0.63156657      -2.45157240
C       -0.90989263      -0.90692880      -0.91072765
C        0.90977584       0.90977584      -0.90977584
C       -0.00465871       1.77757030       0.00794375
H       -0.66225468       2.44313916      -0.64384735
H        0.64322798       2.43503045       0.67728295
C       -1.78241447       0.00034974      -0.00472694
H       -2.45427497      -0.65498947       0.64260836
H       -2.43311707       0.67328779      -0.65473579
C       -0.91132561       0.90220522       0.91563759
C       -0.01476271      -0.02253852       1.78660255
H       -0.67934791      -0.69751639       2.42135241
H        0.63392994       0.61504881       2.47327442
C        0.01484550      -1.77751727      -0.01636693
H        0.67870853      -2.42144646      -0.68295456
H       -0.62264859      -2.45592969       0.64226336
C        1.78714474       0.01002794       0.00389507
H        2.44202412       0.67113390       0.66197326
H        2.45385902      -0.65136977      -0.64189061
C        0.91606151      -0.90478549       0.90901405
