174
Properties=species:S:1:pos:R:3 pbc="F F F"
C        1.76675857       1.76675857      -1.76675857
C        2.65095392       2.79492541      -1.13706745
N        3.44938796       3.60856559      -1.76528891
C        3.46347641       3.48993406      -3.12791693
C        4.16969148       4.15945466      -4.09614470
C        3.76769263       3.59277793      -5.32745439
N        2.84982509       2.62066448      -5.14801907
N        2.67125359       2.55913061      -3.80419731
C        1.82755156       1.70603187      -3.10354664
C        4.25355700       3.97157679      -6.66417376
O        5.05931451       4.87852592      -6.84686463
N        3.71407492       3.21449052      -7.68124057
C        4.06246105       3.40045791      -9.07237776
C        3.23955907       4.52017020      -9.70534635
C        3.68761954       4.84780254     -11.12674108
N        3.48333404       3.75871903     -12.06209355
N        4.50207233       2.92295045     -12.34419479
C        3.99410328       2.08652302     -13.26268425
C        4.84510463       1.02720088     -13.85637187
C        2.64578013       2.39645135     -13.53222559
C        2.33717892       3.47345236     -12.74481448
H        2.60801094       2.85416147      -0.03616048
H        4.88863895       4.95139074      -3.93988673
H        1.24910670       1.01572693      -3.70183834
H        3.04058548       2.50627166      -7.40041242
H        3.87981509       2.44510193      -9.57315397
H        5.13242710       3.62681801      -9.13691507
H        3.32834367       5.43033809      -9.09973403
H        2.17777040       4.24415434      -9.69553366
H        4.74936538       5.12129168     -11.15411290
H        3.12091917       5.70541597     -11.50885985
H        4.31120092       0.07225683     -13.89802113
H        5.75768341       0.87129077     -13.27043857
H        5.13934089       1.30432786     -14.87405656
H        1.43304440       4.05180106     -12.62248316
C        1.77847983       1.71901107     -14.46091545
C        1.05211583       1.15165483     -15.23869320
Br      -0.12235333       0.23428777     -16.49629405
C       -1.76675857      -1.76675857      -1.76675857
C       -1.24639287      -2.25645897      -3.08009495
N       -1.88666858      -3.01072770      -3.92584618
C       -3.15082822      -3.37708782      -3.55341136
C       -4.09728206      -4.15385276      -4.17415602
C       -5.20837762      -4.17927321      -3.30027411
N       -4.97948699      -3.45074471      -2.18827695
N       -3.72132090      -2.96732628      -2.34593432
C       -3.01135895      -2.16008893      -1.46568219
C       -6.47731856      -4.89190489      -3.52008410
O       -6.71516259      -5.52720516      -4.54233731
N       -7.36512613      -4.77146620      -2.47321368
C       -8.66563961      -5.40378748      -2.46586964
C       -9.69756012      -4.55852018      -3.20899533
C      -11.04191620      -5.26559515      -3.35465181
N      -11.70690150      -5.50816580      -2.08907932
N      -11.57602129      -6.70647727      -1.48671901
C      -12.34479756      -6.60744038      -0.39107261
C      -12.48841074      -7.76489439       0.52462775
C      -12.93644416      -5.33088610      -0.30712681
C      -12.50820868      -4.63881979      -1.40841729
H       -0.22226618      -1.93752493      -3.33854178
H       -4.00174577      -4.64671303      -5.13145762
H       -3.52468423      -1.88827376      -0.55371398
H       -7.05657483      -4.19979370      -1.69090104
H       -8.94563558      -5.53585243      -1.41658297
H       -8.57528038      -6.39306799      -2.92781183
H       -9.32505766      -4.32053930      -4.21281882
H       -9.82634616      -3.59985644      -2.69125581
H      -10.92922197      -6.22895921      -3.86658878
H      -11.72237775      -4.65376462      -3.95905262
H      -12.39976803      -7.45168447       1.56997361
H      -11.71735801      -8.52076308       0.33870835
H      -13.46637245      -8.23767114       0.38631828
H      -12.70652398      -3.63787022      -1.76293442
C      -13.82279742      -4.86196856       0.72635964
C      -14.56511828      -4.46925012       1.59190454
Br     -15.76538831      -3.83425761       2.99141743
C       -1.76675857       1.76675857       1.76675857
C       -2.81624124       1.13943171       2.62727384
N       -3.63227824       1.76790496       3.42305926
C       -3.49465991       3.12836298       3.45830452
C       -4.16049368       4.09601314       4.16878402
C       -3.57082153       5.32463836       3.79246506
N       -2.58830759       5.14427834       2.88592272
N       -2.54317941       3.80236534       2.68903675
C       -1.68806564       3.10155144       1.84751299
C       -3.93764545       6.65965498       4.29200712
O       -4.85335903       6.84391865       5.08742738
N       -3.15865669       7.67329590       3.77785342
C       -3.32995470       9.06190003       4.14344200
C       -4.42874833       9.72235645       3.31397085
C       -4.74268154      11.14183263       3.77764899
N       -3.63770829      12.06430171       3.60213662
N       -2.81269984      12.32003010       4.63648762
C       -1.95622647      13.23353458       4.15354950
C       -0.90091757      13.79995444       5.02780538
C       -2.24300949      13.52646438       2.80498321
C       -3.32648197      12.75896541       2.46999837
H       -2.89037332       0.04019938       2.56776019
H       -4.96475491       3.94097549       4.87418603
H       -0.98119200       3.69800611       1.28747387
H       -2.44490855       7.39189189       3.11046912
H       -2.36511872       9.55148784       3.98146443
H       -3.57066086       9.11457566       5.21092368
H       -5.34854113       9.12863082       3.38124384
H       -4.13774179       9.72356898       2.25614764
H       -5.03091369      11.15814015       4.83571611
H       -5.58662996      11.54412924       3.20443580
H        0.06205651      13.83546630       4.50806909
H       -0.76635104      13.19904284       5.93401887
H       -1.16784782      14.81724855       5.33262894
H       -3.89350875      12.65767750       1.55614237
C       -1.54020856      14.45750723       1.96069056
C       -0.95161278      15.23725561       1.25359546
Br       0.00009681      16.49804280       0.11028250
C        1.76675857      -1.76675857       1.76675857
C        1.13822225      -2.63862274       2.80610180
N        1.76656624      -3.43567758       3.62099864
C        3.12813230      -3.46078344       3.49241166
C        4.09607256      -4.16921972       4.15999857
C        5.32606677      -3.78059386       3.58126433
N        5.14618710      -2.86862308       2.60369847
N        3.80330050      -2.68051420       2.55076680
C        3.10257202      -1.83794630       1.69661175
C        6.66194248      -4.27358195       3.95378312
O        6.84542076      -5.07395452       4.86532979
N        7.67730412      -3.74729256       3.18520933
C        9.06717512      -4.10463961       3.36348201
C        9.71452214      -3.27822171       4.47233178
C       11.13496702      -3.73441621       4.79277993
N       12.06367144      -3.54514952       3.69532565
N       12.33201048      -4.57210592       2.86510118
C       13.24797685      -4.07718030       2.01815340
C       13.82746046      -4.94037962       0.96083730
C       13.52977125      -2.72864774       2.31603808
C       12.75269923      -2.40624628       3.39650025
H        0.03813396      -2.58705067       2.87314827
H        3.94040595      -4.88111398       4.95839649
H        3.69996647      -1.26908605       0.99761945
H        7.39619589      -3.07698220       2.47409147
H        9.56216262      -3.93278885       2.40311952
H        9.12548892      -5.17335485       3.59731641
H        9.11506138      -3.35576983       5.38758457
H        9.71049995      -2.21845755       4.18850091
H       11.15652888      -4.79428690       5.07395418
H       11.52763449      -3.16425516       5.64330534
H       13.86594435      -4.41387020       0.00166433
H       13.23365702      -5.84969906       0.81605667
H       14.84497803      -5.24012676       1.23262052
H       12.64135874      -1.49697827       3.96899162
C       14.45977544      -1.87331198       1.62531892
C       15.23865394      -1.15696829       1.04684162
Br      16.49803461       0.00129888       0.11149276
C       -0.00445707       0.01189536      -1.78238275
H       -0.66409135       0.67374010      -2.43557963
H        0.65740317      -0.63156657      -2.45157240
C       -0.90989263      -0.90692880      -0.91072765
C        0.90977584       0.90977584      -0.90977584
C       -0.00465871       1.77757030       0.00794375
H       -0.66225468       2.44313916      -0.64384735
H        0.64322798       2.43503045       0.67728295
C       -1.78241447       0.00034974      -0.00472694
H       -2.45427497      -0.65498947       0.64260836
H       -2.43311707       0.67328779      -0.65473579
C       -0.91132561       0.90220522       0.91563759
C       -0.01476271      -0.02253852       1.78660255
H       -0.67934791      -0.69751639       2.42135241
H        0.63392994       0.61504881       2.47327442
C        0.01484550      -1.77751727      -0.01636693
H        0.67870853      -2.42144646      -0.68295456
H       -0.62264859      -2.45592969       0.64226336
C        1.78714474       0.01002794       0.00389507
H        2.44202412       0.67113390       0.66197326
H        2.45385902      -0.65136977      -0.64189061
C        0.91606151      -0.90478549       0.90901405
