157
Properties=species:S:1:pos:R:3 pbc="F F F"
C        0.00000000       0.00000000       0.00000000
C        4.42096832       0.03643998      -3.64264494
C        3.00189936       0.45780955      -4.00136992
C        2.31372184       1.13628257      -2.83776594
C        1.48579416       0.34403392      -2.01662120
C        0.88153195       0.88153195      -0.88153195
C        1.08542169       2.21208289      -0.54389888
C        1.91333329       3.00549879      -1.34035719
C        2.54312175       2.48109510      -2.47891412
N        3.37651794       3.29764717      -3.27905697
C        4.12788115       4.35767486      -2.80396948
O        4.27936514       4.65184300      -1.62372556
C        4.81593471       5.14434949      -3.91060699
H        5.25495130       4.41685828      -4.60855847
C        5.95745300       6.09429021      -3.43858269
H        6.82641937       5.56456214      -3.04045133
C        6.21158468       6.84935752      -4.75396358
C        4.78495893       7.35938185      -4.84938244
H        4.53514594       7.97846843      -5.71386198
C        4.52322883       8.02800996      -3.50038397
H        4.72070452       9.10380485      -3.50776503
O        3.13494787       7.79134266      -3.25036141
C        2.75333794       6.65083144      -3.89826148
O        1.65019233       6.14005908      -3.81823994
C        3.90812807       6.11179784      -4.69663115
H        3.58065829       5.71411191      -5.66068521
C        5.40294247       7.21823481      -2.53026783
H        4.86271189       6.87778594      -1.64675887
Br       6.86450181       8.30766647      -1.82608107
H        4.89370503      -0.46731707      -4.49136730
H        4.42408042      -0.65595585      -2.79341201
H        5.04172503       0.89700339      -3.37216073
H        2.43153775      -0.42923786      -4.30462096
H        3.00504406       1.11023497      -4.88101639
H        1.32848866      -0.70525054      -2.25795834
H        0.61124652       2.64765575       0.33127454
H        2.03366953       4.05132804      -1.06620027
H        3.59374641       2.95833449      -4.20464669
H        6.48433158       6.18947892      -5.58442821
H        6.95126479       7.65081482      -4.67831278
C       -0.00866271      -3.84597607      -4.24541446
C       -0.51163677      -4.11612804      -2.83331401
C       -1.16415776      -2.89074101      -2.23287158
C       -0.37215680      -2.06794066      -1.40635181
C       -0.88153195      -0.88153195      -0.88153195
C       -2.18347798      -0.49329743      -1.16462804
C       -2.97545441      -1.29141173      -1.99232312
C       -2.47813796      -2.48190875      -2.54308425
N       -3.29312458      -3.28289997      -3.37719753
C       -4.29334971      -2.79634423      -4.19983155
O       -4.52300943      -1.61249776      -4.41942650
C       -5.09998171      -3.89751733      -4.87339216
H       -4.38756271      -4.64853011      -5.24427523
C       -5.97257257      -3.43788594      -6.07986739
H       -5.38487518      -3.10688164      -6.93967602
C       -6.77768113      -4.72787631      -6.30934835
C       -7.35676870      -4.73086639      -4.90608813
H       -8.02763595      -5.55291847      -4.64692193
C       -7.97092212      -3.34150482      -4.73919583
H       -9.03560315      -3.30892268      -4.98774858
O       -7.78656270      -3.03600224      -3.35408700
C       -6.69736127      -3.71651008      -2.88855951
O       -6.23458936      -3.60697836      -1.76692363
C       -6.14491005      -4.59355411      -3.97809291
H       -5.80963366      -5.55796791      -3.58785383
C       -7.07573493      -2.45318097      -5.62252922
H       -6.71829571      -1.56124848      -5.10771251
Br      -8.06160066      -1.77091547      -7.16573321
H        0.47480216      -4.73876283      -4.65379459
H        0.72327265      -3.03061615      -4.25419308
H       -0.82573417      -3.56644514      -4.91870984
H        0.33259764      -4.43199989      -2.20751859
H       -1.20486879      -4.96397340      -2.82745323
H        0.65593110      -2.34940584      -1.18772172
H       -2.59770128       0.42281582      -0.75274227
H       -4.00021268      -0.97557657      -2.17540859
H       -2.98919231      -4.23250620      -3.53502909
H       -6.14675704      -5.59998456      -6.51149709
H       -7.53970091      -4.65119603      -7.08949545
C       -1.50062835       5.39578747       1.20363742
C       -2.45350536       4.33058256       0.67699091
C       -2.10847289       2.96098128       1.21831619
C       -1.30466433       2.12535731       0.41642764
C       -0.88153195       0.88153195       0.88153195
C       -1.25016387       0.44500062       2.14623896
C       -2.03509323       1.26726209       2.95683395
C       -2.45979204       2.52893872       2.51440020
N       -3.25806631       3.35016602       3.34498975
C       -3.20305311       3.35916353       4.72730885
O       -2.37772913       2.76531832       5.41188624
C       -4.27357641       4.23619627       5.36111851
H       -4.30370122       5.17961423       4.79705260
C       -4.03993016       4.58971265       6.86068308
H       -3.17260399       5.23391484       7.02491401
C       -5.39568413       5.24376613       7.17545553
C       -6.18959863       4.00614719       6.79797740
H       -7.27679634       4.06799062       6.88268939
C       -5.55833908       2.87898515       7.61429853
H       -6.06753512       2.69923383       8.56550546
O       -5.67466252       1.72571640       6.77627302
C       -5.70712311       2.12504108       5.47026667
O       -5.72356974       1.37290438       4.51201724
C       -5.68970734       3.62711102       5.39973870
H       -6.34539834       4.00095264       4.60910443
C       -4.08858738       3.31930330       7.74355443
H       -3.38228025       2.53549364       7.46948281
Br      -3.64389350       3.75948110       9.59487474
H       -1.75684203       6.37449324       0.78641999
H       -0.46480136       5.17025190       0.92648332
H       -1.54355852       5.47218489       2.29514574
H       -2.40662021       4.31957949      -0.41927885
H       -3.49036035       4.58967064       0.91626443
H       -0.99317293       2.45925554      -0.57123201
H       -0.93765792      -0.52722628       2.51719609
H       -2.33051606       0.88799695       3.93268483
H       -3.74212324       4.11557291       2.89903145
H       -5.61851342       6.10419736       6.53552792
H       -5.52387714       5.53520411       8.22131114
C        5.37584887      -1.04213727       1.68206710
C        4.25007052      -0.60211890       2.60888941
C        2.92079844      -1.18446245       2.18250947
C        2.08531537      -0.38389394       1.37723997
C        0.88153195      -0.88153195       0.88153195
C        0.48535472      -2.17811245       1.17793628
C        1.30866277      -2.98710800       1.96341850
C        2.53118410      -2.51142493       2.46052193
N        3.35377264      -3.34100118       3.25844826
C        3.42504717      -4.71805723       3.14642109
O        2.89632614      -5.39027367       2.26833389
C        4.28347275      -5.36070608       4.22671237
H        5.19944542      -4.75972238       4.32120025
C        4.71116345      -6.83270937       3.94645308
H        5.39740979      -6.93219504       3.10182801
C        5.32129863      -7.17855555       5.31505161
C        4.03650616      -6.88770772       6.06950934
H        4.05668786      -7.01688770       7.15390080
C        2.97307892      -7.72203947       5.35650437
H        2.81376109      -8.70110678       5.81740653
O        1.78067984      -6.93855510       5.45741701
C        2.12123966      -5.61970868       5.56148253
O        1.32818302      -4.69519537       5.58511297
C        3.61825521      -5.48606665       5.61223520
H        3.92982353      -4.70977372       6.31585815
C        3.47935257      -7.76894435       3.90314820
H        2.71444592      -7.49731487       3.17549591
Br       4.01759671      -9.57930063       3.40135201
H        6.32401480      -0.59608267       1.99765780
H        5.18178048      -0.72990280       0.64985330
H        5.49770323      -2.13035641       1.68282951
H        4.19345005       0.49374514       2.60721594
H        4.47594361      -0.87519016       3.64516166
H        2.38869443       0.62939049       1.12189252
H       -0.45601042      -2.57527734       0.80836080
H        0.96015472      -3.98979476       2.20124837
H        4.07829974      -2.88502126       3.79340659
H        6.14312519      -6.51366468       5.60144883
H        5.65227588      -8.21596011       5.41215640
