178
Properties=species:S:1:pos:R:3 pbc="F F F"
O        2.77401216       5.20164961      -5.69811223
C        3.92321425       4.99125718      -5.32128199
N        4.28980799       4.15146597      -4.28798333
C        3.41703881       3.40247840      -3.46703174
C        3.97091603       2.34200385      -2.74335260
C        3.17928041       1.52603087      -1.91603072
C        3.83431058       0.37287219      -1.20417206
C        1.80342127       1.80342127      -1.80342127
C        1.23441814       2.88499239      -2.50284305
C       -0.22863644       3.22935441      -2.41172684
C        2.05535086       3.67120345      -3.33313377
C        5.08069299       5.76703170      -5.95164998
H        5.30226173       6.59315515      -5.26044224
C        4.69452604       6.38137666      -7.33534054
H        3.90165786       7.13214339      -7.27994854
C        6.05749142       6.92276886      -7.78380645
C        6.73302403       5.56870863      -7.69774204
H        7.79556903       5.52676031      -7.94750789
C        5.85160199       4.63600583      -8.52902613
H        6.18423895       4.54457759      -9.56684869
O        5.95891120       3.36857789      -7.87144931
C        6.24815340       3.58152209      -6.55535816
O        6.31463542       2.72024719      -5.69335982
C        6.39944997       5.04881456      -6.29781671
H        7.19930218       5.25081383      -5.58107907
C        4.44246850       5.23642957      -8.34723649
H        3.70237666       4.50379942      -8.01592997
Br       3.76247078       5.94315856     -10.03246404
H        5.26227934       3.86271562      -4.23561171
H        5.03185531       2.11860986      -2.84470548
H        3.41659433      -0.57715607      -1.55280374
H        3.70259971       0.46234293      -0.12126037
H        4.91251278       0.34271403      -1.39513251
H       -0.46586709       4.13373258      -2.98257513
H       -0.51480279       3.42405491      -1.37327123
H       -0.83806988       2.41679841      -2.81987041
H        1.60522056       4.50669327      -3.86228409
H        6.47755667       7.65490829      -7.08623761
H        6.06311739       7.34301262      -8.79305965
O       -4.98305847      -5.86615447      -2.82456107
C       -4.88724021      -5.39461548      -3.95389773
N       -4.15233424      -4.27752569      -4.29939736
C       -3.39904106      -3.46566265      -3.42184524
C       -2.43703191      -2.62666998      -3.99257059
C       -1.62369836      -1.79769754      -3.19994610
C       -0.57632323      -0.95633684      -3.87869476
C       -1.80342127      -1.80342127      -1.80342127
C       -2.78697532      -2.62094614      -1.21433213
C       -3.02520286      -2.65924651       0.27200456
C       -3.57271410      -3.44855965      -2.03841434
C       -5.70211984      -5.99892195      -5.09833289
H       -6.58919091      -5.35833899      -5.20832921
C       -6.18666688      -7.44884775      -4.77572860
H       -6.87732185      -7.50630742      -3.93012053
C       -6.79675596      -7.84004233      -6.12726845
C       -5.50710283      -7.60448617      -6.88788571
H       -5.52821227      -7.77502998      -7.96659499
C       -4.45424652      -8.42272925      -6.13965818
H       -4.31550186      -9.42469379      -6.55546957
O       -3.24795425      -7.66522672      -6.28575744
C       -3.57418451      -6.35194925      -6.45889990
O       -2.78315749      -5.42472016      -6.52036478
C       -5.06318513      -6.19616700      -6.48672912
H       -5.37502022      -5.44230587      -7.21386899
C       -4.95762164      -8.38642421      -4.68208871
H       -4.19620811      -8.05349575      -3.97240219
Br      -5.49062404     -10.16392472      -4.08354462
H       -3.94239108      -4.13520776      -5.28300783
H       -2.28798027      -2.63597880      -5.07121159
H        0.42474304      -1.26059307      -3.55639198
H       -0.73149397       0.10475176      -3.65946080
H       -0.61447930      -1.06818094      -4.96769908
H       -3.86665524      -3.31215027       0.52836489
H       -3.27022802      -1.66119866       0.64890333
H       -2.14218307      -3.04657837       0.79016249
H       -4.33246991      -4.06974605      -1.57198197
H       -7.60581186      -7.17206402      -6.44082669
H       -7.14421261      -8.87529860      -6.17967844
O       -3.82989713       3.48985654       6.35402034
C       -4.45885986       4.20104399       5.57584957
N       -4.33464214       4.19421813       4.20039702
C       -3.45373205       3.39029227       3.44252463
C       -3.73038507       3.24639401       2.07949341
C       -2.92410440       2.44970049       1.24753712
C       -3.30944175       2.30187172      -0.19995865
C       -1.80342127       1.80342127       1.80342127
C       -1.49378095       1.96041710       3.16805553
C       -0.30389317       1.29800557       3.81054606
C       -2.33222040       2.75409462       3.97337307
C       -5.40741033       5.26836018       6.12360416
H       -4.84641398       6.21379267       6.09565247
C       -5.81622138       4.98945040       7.60557146
H       -4.97998713       5.02475329       8.30900937
C       -6.86969058       6.08519015       7.80918601
C       -7.73479500       5.60265922       6.66202049
H       -8.64671995       6.16742870       6.45568859
C       -7.96164365       4.11612919       6.93886111
H       -8.88457270       3.91942724       7.49166528
O       -8.03869920       3.52182426       5.63841494
C       -7.33049945       4.29176230       4.76277190
O       -7.11388215       4.02183194       3.59252834
C       -6.78376267       5.49407320       5.46824538
H       -6.81612369       6.38245055       4.83262084
C       -6.66634230       3.69627339       7.66351886
H       -6.18421994       2.82545492       7.21243119
Br      -7.03223990       3.19413738       9.51171610
H       -5.07349060       4.63044053       3.65667554
H       -4.60696279       3.73331679       1.65489107
H       -3.55697658       1.25921125      -0.42394583
H       -2.49815036       2.64022052      -0.85216787
H       -4.19086710       2.90436718      -0.44487496
H       -0.20194756       1.58592156       4.86257150
H        0.62146226       1.59633660       3.30764900
H       -0.41032631       0.20900077       3.77927186
H       -2.07857162       2.87232759       5.02329871
H       -6.47391482       7.09385411       7.65093365
H       -7.37690563       6.04543043       8.77685359
O        6.05463497      -2.93305919       4.68607986
C        5.47495744      -4.01340465       4.74739133
N        4.26297448      -4.31059978       4.15568302
C        3.46297086      -3.42831819       3.39525990
C        2.48322106      -3.99724729       2.57580413
C        1.65250640      -3.20286295       1.76597266
C        0.65200651      -3.88635776       0.87299056
C        1.80342127      -1.80342127       1.80342127
C        2.76573541      -1.21218157       2.64433660
C        2.96297677       0.27830501       2.72777305
C        3.58946985      -2.04011088       3.43010736
C        6.05118565      -5.13367613       5.61451290
H        5.49547938      -5.09758991       6.56278983
C        7.56573388      -4.91536041       5.93014894
H        7.76897764      -4.02040150       6.52437065
C        7.89140588      -6.23810277       6.63455809
C        7.45936066      -7.08555362       5.45456043
H        7.53218547      -8.16949913       5.56815264
C        8.23259621      -6.52221958       4.26181816
H        9.17352304      -7.04734871       4.07479347
O        7.34775995      -6.70086656       3.15031189
C        6.06354953      -6.71095041       3.61053371
O        5.05992002      -6.75088909       2.91743332
C        6.05604120      -6.58725671       5.10278333
H        5.27417768      -7.20365859       5.55335881
C        8.37989858      -5.02859741       4.61763857
H        8.03830605      -4.36141816       3.82238184
Br      10.24899747      -4.56533433       4.92376158
H        4.01130757      -5.28998569       4.05931342
H        2.37923417      -5.08045113       2.53548535
H        0.88239222      -3.68874063      -0.17889085
H       -0.36375822      -3.54856550       1.10139572
H        0.66744527      -4.97306193       1.00985211
H        3.71762343       0.54345450       3.47627169
H        2.03304756       0.77416900       3.02364479
H        3.30535513       0.67239025       1.76563406
H        4.32363239      -1.57108716       4.07947838
H        7.28218747      -6.40805942       7.52845569
H        8.94719525      -6.36223210       6.88976230
C       -0.00445707       0.01189536      -1.78238275
H       -0.66409135       0.67374010      -2.43557963
H        0.65740317      -0.63156657      -2.45157240
C       -0.90989263      -0.90692880      -0.91072765
C        0.90977584       0.90977584      -0.90977584
C       -0.00465871       1.77757030       0.00794375
H       -0.66225468       2.44313916      -0.64384735
H        0.64322798       2.43503045       0.67728295
C       -1.78241447       0.00034974      -0.00472694
H       -2.45427497      -0.65498947       0.64260836
H       -2.43311707       0.67328779      -0.65473579
C       -0.91132561       0.90220522       0.91563759
C       -0.01476271      -0.02253852       1.78660255
H       -0.67934791      -0.69751639       2.42135241
H        0.63392994       0.61504881       2.47327442
C        0.01484550      -1.77751727      -0.01636693
H        0.67870853      -2.42144646      -0.68295456
H       -0.62264859      -2.45592969       0.64226336
C        1.78714474       0.01002794       0.00389507
H        2.44202412       0.67113390       0.66197326
H        2.45385902      -0.65136977      -0.64189061
C        0.91606151      -0.90478549       0.90901405
