142
Properties=species:S:1:pos:R:3 pbc="F F F"
C        1.77704688       1.77704688      -1.77704688
C        1.36445281       2.45024100      -2.93272895
N        2.36568454       3.14580229      -3.48420847
N        3.41082536       2.90382158      -2.66271562
C        4.69393696       3.52429549      -2.93234798
C        5.22776593       3.16805365      -4.31363685
C        6.52669960       3.89632662      -4.57782194
O        7.18883499       4.38447262      -3.67016892
N        6.82917985       3.95749778      -5.92590672
C        7.97826093       4.56217052      -6.49338298
C        7.86000832       5.02582185      -7.80770368
F        6.69422742       4.86727667      -8.45472454
C        8.91400362       5.67287478      -8.44933372
F        8.73991739       6.12124874      -9.70068226
C       10.12586614       5.84957018      -7.79317607
C       10.27449127       5.35461398      -6.50004025
F       11.44992571       5.47015843      -5.86317222
C        9.21525016       4.71051329      -5.85656231
F        9.45402336       4.16162444      -4.65841633
C        3.10253405       2.08132631      -1.61729669
H        0.38835153       2.47108657      -3.39947246
H        5.39125796       3.20763994      -2.14796692
H        4.54715921       4.60624238      -2.83064468
H        4.49911502       3.43807234      -5.08726731
H        5.41344425       2.09002353      -4.38772709
H        6.06086042       3.79251874      -6.57229310
H        3.82968889       1.79980576      -0.86897301
C       11.21873004       6.51930393      -8.44945741
C       12.13400356       7.08020594      -8.99909304
Br      13.61392343       7.98713705      -9.88780736
C       -1.77704688      -1.77704688      -1.77704688
C       -1.32347844      -2.66132470      -2.76261962
N       -2.33730664      -3.29624021      -3.36214846
N       -3.43199173      -2.80291644      -2.74245439
C       -4.74736195      -3.28622201      -3.11699647
C       -5.04042282      -3.07272189      -4.59631172
C       -6.38796709      -3.65889177      -4.95398929
O       -7.22625420      -3.91802464      -4.09919769
N       -6.52023629      -3.87954020      -6.31280787
C       -7.66353018      -4.40868354      -6.96160071
C       -7.44716245      -5.07311367      -8.17325774
F       -6.19732691      -5.16337716      -8.65552457
C       -8.49395313      -5.66702210      -8.87523689
F       -8.22867391      -6.31433054     -10.01884395
C       -9.79283762      -5.58727667      -8.38849810
C      -10.03162887      -4.89137919      -7.20613743
F      -11.28325880      -4.75921134      -6.74078622
C       -8.98036898      -4.30076684      -6.50118994
F       -9.28735582      -3.55445130      -5.43225703
C       -3.14238832      -1.88128164      -1.77748709
H       -0.30938391      -2.87641025      -3.07311640
H       -5.48515301      -2.76990473      -2.49180708
H       -4.77668722      -4.35098202      -2.85637704
H       -4.26638885      -3.54574611      -5.21231971
H       -5.05337421      -2.00271129      -4.83510936
H       -5.65927334      -3.91227859      -6.85412033
H       -3.90999753      -1.40091776      -1.18755238
C      -10.87921534      -6.20059512      -9.10768092
C      -11.78905668      -6.71424933      -9.70999653
Br     -13.26019318      -7.54478473     -10.68388993
C       -1.77704688       1.77704688       1.77704688
C       -3.17130414       1.87416784       1.70195078
N       -3.65748886       2.72739257       2.61081387
N       -2.55489442       3.16417093       3.25829720
C       -2.69169783       4.10537889       4.35350370
C       -3.39437141       5.38774854       3.92733648
C       -3.58083833       6.30368291       5.11632692
O       -2.93353561       6.16317670       6.14676421
N       -4.56018760       7.25521750       4.89717925
C       -4.96168314       8.26067390       5.81145740
C       -6.26977969       8.73935432       5.68439985
F       -7.05704768       8.24216283       4.71701813
C       -6.78227161       9.69822928       6.55571123
F       -8.05118923      10.10418023       6.40647893
C       -5.98309819      10.22025625       7.56525795
C       -4.66454116       9.78668311       7.67792123
F       -3.85852090      10.31066924       8.61406621
C       -4.15391464       8.82179407       6.80661705
F       -2.85046586       8.52717357       6.89642470
C       -1.39523016       2.61753699       2.78838991
H       -3.85644813       1.36765494       1.03480749
H       -1.68840376       4.31731942       4.74114163
H       -3.25166918       3.58961990       5.14275721
H       -4.37388452       5.16063479       3.48993535
H       -2.80271993       5.91724487       3.17123006
H       -5.21611777       7.06719365       4.14236084
H       -0.42948284       2.86101620       3.20796862
C       -6.50687391      11.20994334       8.47067413
C       -6.94553607      12.03880628       9.22896018
Br      -7.65481570      13.37900755      10.45504459
C        1.77704688      -1.77704688       1.77704688
C        3.17649515      -1.80009368       1.77083392
N        3.66086493      -2.67464296       2.66018741
N        2.55179309      -3.19966237       3.22590711
C        2.68301253      -4.18929649       4.27827141
C        3.47282369      -5.41058112       3.82605162
C        3.64754302      -6.37746768       4.97583746
O        2.94291653      -6.32412289       5.97643711
N        4.68547229      -7.26585266       4.76125940
C        5.09313656      -8.29675895       5.64391893
C        6.42938392      -8.70192983       5.56222011
F        7.23680561      -8.11558060       4.66384243
C        6.94744588      -9.67855038       6.41021585
F        8.24189251     -10.01197772       6.30797817
C        6.12734788     -10.29249007       7.34877444
C        4.78376846      -9.93207169       7.41330535
F        3.96062270     -10.54443628       8.27819738
C        4.26724933      -8.94935992       6.56571651
F        2.94721329      -8.72556332       6.60128753
C        1.38990920      -2.68779006       2.72345780
H        3.86652915      -1.22540260       1.16697880
H        1.67413603      -4.47139131       4.60133747
H        3.17474922      -3.68848333       5.12081373
H        4.45967507      -5.11191964       3.45285995
H        2.94855475      -5.92843103       3.01420909
H        5.36756359      -7.00564525       4.05246343
H        0.41854339      -3.00114376       3.07878051
C        6.65658043     -11.30107485       8.22983610
C        7.09981269     -12.14576460       8.96772524
Br       7.81648177     -13.51155649      10.16082958
C       -0.00445707       0.01189536      -1.78238275
H       -0.66409135       0.67374010      -2.43557963
H        0.65740317      -0.63156657      -2.45157240
C       -0.90989263      -0.90692880      -0.91072765
C        0.90977584       0.90977584      -0.90977584
C       -0.00465871       1.77757030       0.00794375
H       -0.66225468       2.44313916      -0.64384735
H        0.64322798       2.43503045       0.67728295
C       -1.78241447       0.00034974      -0.00472694
H       -2.45427497      -0.65498947       0.64260836
H       -2.43311707       0.67328779      -0.65473579
C       -0.91132561       0.90220522       0.91563759
C       -0.01476271      -0.02253852       1.78660255
H       -0.67934791      -0.69751639       2.42135241
H        0.63392994       0.61504881       2.47327442
C        0.01484550      -1.77751727      -0.01636693
H        0.67870853      -2.42144646      -0.68295456
H       -0.62264859      -2.45592969       0.64226336
C        1.78714474       0.01002794       0.00389507
H        2.44202412       0.67113390       0.66197326
H        2.45385902      -0.65136977      -0.64189061
C        0.91606151      -0.90478549       0.90901405
