113
Properties=species:S:1:pos:R:3 pbc="F F F"
C        0.00000000       0.00000000       0.00000000
C        0.86714285       0.86714285      -0.86714285
C        0.45454879       1.54033697      -2.02282492
N        1.45578051       2.23589827      -2.57430445
N        2.50092134       1.99391756      -1.75281159
C        3.78403294       2.61439147      -2.02244395
C        4.31786191       2.25814962      -3.40373282
C        5.61679557       2.98642259      -3.66791792
O        6.27893096       3.47456860      -2.76026489
N        5.91927582       3.04759376      -5.01600270
C        7.06835691       3.65226650      -5.58347896
C        6.95010430       4.11591783      -6.89779966
F        5.78432340       3.95737265      -7.54482052
C        8.00409959       4.76297075      -7.53942970
F        7.83001337       5.21134472      -8.79077824
C        9.21596212       4.93966616      -6.88327205
Br      10.65054013       5.81881067      -7.74475790
C        9.36458724       4.44470995      -5.59013623
F       10.54002169       4.56025440      -4.95326819
C        8.30534614       3.80060926      -4.94665828
F        8.54411934       3.25172042      -3.74851231
C        2.19263003       1.17142228      -0.70739267
H       -0.52155249       1.56118255      -2.48956844
H        4.48135394       2.29773591      -1.23806289
H        3.63725519       3.69633836      -1.92074066
H        3.58921099       2.52816831      -4.17736328
H        4.50354022       1.18011950      -3.47782306
H        5.15095639       2.88261472      -5.66238908
H        2.91978487       0.88990174       0.04093101
C       -0.86714285      -0.86714285      -0.86714285
C       -0.69640257      -1.08162343      -2.23968468
N       -1.62692688      -1.90826890      -2.73078745
N       -2.38296737      -2.21184286      -1.65284026
C       -3.50057091      -3.12556866      -1.79472879
C       -4.51360552      -2.64197431      -2.82416453
C       -5.61857012      -3.66101208      -2.99155388
O       -5.82319468      -4.53381445      -2.15675533
N       -6.31008527      -3.49512331      -4.17766370
C       -7.40292215      -4.28148028      -4.61969993
C       -7.60233596      -4.35956597      -6.00191985
F       -6.77460884      -3.69101214      -6.82089558
C       -8.62139740      -5.13714511      -6.54795753
F       -8.75313944      -5.19832818      -7.88066870
C       -9.48426014      -5.83915979      -5.71548039
Br     -10.86789945      -6.89887942      -6.44732984
C       -9.32685615      -5.73697107      -4.33560621
F      -10.17682135      -6.36670358      -3.51001935
C       -8.30169343      -4.96087323      -3.79004703
F       -8.26997709      -4.81536802      -2.45900695
C       -1.96190925      -1.60526882      -0.50426692
H        0.05671661      -0.68060674      -2.90530836
H       -3.96658745      -3.24133519      -0.80923011
H       -3.07814045      -4.09659922      -2.07959453
H       -4.02640744      -2.47596361      -3.79237154
H       -4.96206744      -1.69341227      -2.50600308
H       -5.84869866      -2.94704573      -4.90021580
H       -2.45848522      -1.75426901       0.44399864
C       -0.86714285       0.86714285       0.86714285
C       -2.25175989       1.02678006       0.73917074
N       -2.74096774       1.86203190       1.66298360
N       -1.65008430       2.22435990       2.37320628
C       -1.79488392       3.12486406       3.50112037
C       -2.42553099       4.45249470       3.10171866
C       -2.62495256       5.32604804       4.32013548
O       -2.02860052       5.11587009       5.36929385
N       -3.55420332       6.32676597       4.10190298
C       -3.95286118       7.31013951       5.04110167
C       -5.23360459       7.84911290       4.88110430
F       -5.99851549       7.42611163       3.86188944
C       -5.74313670       8.79249366       5.77086968
F       -6.98680362       9.25809938       5.58723332
C       -4.96712577       9.23804919       6.83372536
Br      -5.65101897      10.51557729       8.04751244
C       -3.67347560       8.74424679       6.98171103
F       -2.88741142       9.19447455       7.97165831
C       -3.16605249       7.79494196       6.09161924
F       -1.88081030       7.44143115       6.22211062
C       -0.49477667       1.64837179       1.92829653
H       -2.92794420       0.57779888       0.02345541
H       -0.80123507       3.27764716       3.93827051
H       -2.40875913       2.60159400       4.24398107
H       -3.39393518       4.28558845       2.61521896
H       -1.78088520       4.98676464       2.39383295
H       -4.18441975       6.19806007       3.31348037
H        0.46131879       1.83293396       2.39714042
C        0.86714285      -0.86714285       0.86714285
C        1.98044161      -1.59901874       0.43825033
N        2.54923782      -2.27060424       1.44614117
N        1.78291954      -1.95223163       2.51249932
C        2.11521394      -2.48594689       3.81970753
C        2.13930482      -4.00881199       3.83162754
C        2.56313275      -4.51605165       5.19195168
O        2.52266091      -3.80354293       6.18756062
N        3.01087513      -5.82379088       5.14820627
C        3.46600987      -6.58400594       6.25408655
C        4.37124161      -7.61406094       5.97851923
F        4.74533935      -7.83339116       4.70778606
C        4.91429183      -8.39760244       6.99460577
F        5.79785234      -9.35519691       6.67908707
C        4.54185457      -8.18147310       8.31557265
Br       5.27548265      -9.23764295       9.70098311
C        3.60807762      -7.18896697       8.60238883
F        3.19623371      -6.99295453       9.86435605
C        3.06836910      -6.40119245       7.58305214
F        2.09624540      -5.53936471       7.90874195
C        0.75393670      -1.10697979       2.21052849
H        2.40638504      -1.67635403      -0.55354058
H        1.38160330      -2.09899720       4.53655224
H        3.09425065      -2.07155641       4.08852714
H        2.83490578      -4.38686634       3.07297047
H        1.14445128      -4.41078679       3.60624472
H        3.27920001      -6.18225647       4.23450371
H        0.05711183      -0.75415663       2.95748713
