170
Properties=species:S:1:pos:R:3 pbc="F F F"
C        5.80465546       0.79355217      -2.58477212
O        5.19623752       1.88570894      -3.26662178
C        3.89962713       2.18292807      -2.92515752
C        3.09638515       1.39318940      -2.09167649
C        1.79220821       1.79220821      -1.79220821
C        1.28344812       2.98398496      -2.29155692
C        2.06961363       3.76073360      -3.14044414
C        3.36098343       3.35014780      -3.50030532
N        4.14363701       4.09408284      -4.42798608
C        3.58545161       4.84794732      -5.43962943
O        2.38695020       4.85424028      -5.71574029
C        4.50813949       5.81863455      -6.16954673
H        4.65650844       6.66577691      -5.48487340
C        3.82131074       6.35912066      -7.47000263
H        2.90794196       6.93034980      -7.28296007
C        4.96999624       7.17162938      -8.07139653
C        5.90955163       5.98217211      -8.12200204
H        6.91482569       6.16460863      -8.50797344
C        5.13103147       4.90414964      -8.87379228
H        5.32779452       4.90295798      -9.94987044
O        5.58140240       3.67591755      -8.29243422
C        5.96744247       3.91550761      -7.00612729
O        6.27919992       3.06392548      -6.19182140
C        5.87581466       5.37976810      -6.71178847
H        6.71374467       5.72360981      -6.09986335
C        3.66837754       5.19449780      -8.48114043
H        3.15324055       4.31743972      -8.08038870
Br       2.62070732       5.75147159     -10.02631787
H        6.84980397       0.73658511      -2.90263159
H        5.32446746      -0.15436783      -2.84994561
H        5.79551743       0.94974648      -1.50022693
H        3.45558958       0.45654278      -1.68011376
H        0.27764382       3.31392596      -2.04619366
H        1.65184246       4.69218435      -3.51349058
H        5.09600167       3.74356172      -4.54002805
H        5.32071682       7.96981979      -7.40937669
H        4.74889201       7.59158873      -9.05674601
C       -0.40251497      -5.46132945      -3.31913532
O       -1.76744377      -5.09240210      -3.48872237
C       -2.14013847      -3.86205837      -3.00551588
C       -1.32386306      -3.03551744      -2.22187055
C       -1.79220821      -1.79220821      -1.79220821
C       -3.05672574      -1.34731366      -2.15495059
C       -3.88149803      -2.17564336      -2.91364998
C       -3.45301522      -3.45129980      -3.30712153
N       -4.31438904      -4.33706324      -4.01425366
C       -5.68590611      -4.32116948      -3.86595277
O       -6.28283622      -3.64124046      -3.03285409
C       -6.50180164      -5.10795207      -4.88656706
H       -6.49452949      -4.50615525      -5.80647400
C       -7.98789845      -5.25135829      -4.41117729
H       -8.51361129      -4.29802674      -4.30961380
C       -8.53930140      -6.17079603      -5.50292472
C       -7.52334400      -7.26268224      -5.22769953
H       -7.57734542      -8.15519180      -5.85487054
C       -7.64335297      -7.53601944      -3.72960099
H       -8.34031226      -8.34575073      -3.49455994
O       -6.31735330      -7.90055160      -3.33184927
C       -5.42656740      -7.29413501      -4.16837497
O       -4.21581297      -7.29054345      -4.02859038
C       -6.15972713      -6.56060942      -5.24703469
H       -5.66217678      -6.65980720      -6.21523386
C       -8.03051634      -6.15836812      -3.15513131
H       -7.37118859      -5.83439577      -2.34548461
Br      -9.81998406      -6.19281292      -2.38569980
H       -0.24598604      -6.41906381      -3.82397082
H       -0.15962211      -5.60014690      -2.26027622
H        0.26615175      -4.72797323      -3.78366937
H       -0.32996878      -3.34445911      -1.91781822
H       -3.42153240      -0.37212099      -1.84411005
H       -4.86426316      -1.80292561      -3.19032863
H       -3.85996240      -5.19820009      -4.32142895
H       -8.45054722      -5.74278979      -6.50657630
H       -9.57259914      -6.48819561      -5.33643200
C       -5.17994870       0.24640874       3.75662230
O       -4.74410052       1.57421076       4.03025696
C       -3.65994951       2.02801121       3.31975200
C       -2.86615805       1.22990476       2.48518824
C       -1.79220821       1.79220821       1.79220821
C       -1.51232412       3.14827131       1.89839456
C       -2.28358944       3.94138505       2.74581688
C       -3.33043585       3.38596153       3.49503917
N       -4.07435126       4.16863999       4.42271468
C       -3.53467627       5.24957032       5.08878178
O       -2.34656339       5.56456689       5.04580048
C       -4.50797859       6.16894446       5.81939771
H       -4.99934082       6.76814218       5.03967575
C       -3.73491022       7.14659357       6.76893025
H       -3.05204497       7.82235746       6.24684940
C       -4.90780654       7.83861192       7.46660370
C       -5.48633708       6.53785173       7.98953696
H       -6.40711299       6.60753494       8.57275983
C       -4.32663635       5.86283064       8.71950640
H       -4.29783286       6.09458217       9.78820790
O       -4.55839290       4.46316886       8.52819240
C       -5.24117650       4.28761378       7.36028709
O       -5.48346319       3.21326928       6.83821433
C       -5.58350802       5.61764449       6.76621872
H       -6.58585324       5.62114813       6.33021647
C       -3.09377422       6.33032109       7.91992047
H       -2.46427354       5.50149036       7.58530507
Br      -1.93443107       7.45749140       9.00657431
H       -6.09151964       0.06426896       4.33323208
H       -4.43270035      -0.48806145       4.07540634
H       -5.42726452       0.12180560       2.69642073
H       -3.05146493       0.16741957       2.37336162
H       -0.69256803       3.59931208       1.34588334
H       -2.04921201       5.00089953       2.80740585
H       -4.86492175       3.67506409       4.83960560
H       -5.57382889       8.35681000       6.76927442
H       -4.60803896       8.52951367       8.25967413
C        0.24739250      -5.18236839       3.75321884
O        1.64784870      -4.92522272       3.77549682
C        2.07585643      -3.77763113       3.15422517
C        1.26337032      -2.94847102       2.36940970
C        1.79220821      -1.79220821       1.79220821
C        3.11669360      -1.43465458       2.00764181
C        3.93521654      -2.26841717       2.76715766
C        3.44000701      -3.46336783       3.30806171
N        4.28546314      -4.36169319       4.01854960
C        5.63463469      -4.48179274       3.75660093
O        6.20817744      -3.92960821       2.81914512
C        6.47138787      -5.25187795       4.77305494
H        6.59681127      -4.57792991       5.63241756
C        7.89163468      -5.56743686       4.19136250
H        8.48302177      -4.67703577       3.96119429
C        8.46133030      -6.43946434       5.31222752
C        7.33796735      -7.45432671       5.22143171
H        7.37434500      -8.29318323       5.91987952
C        7.29946074      -7.86021710       3.74929555
H        7.90309702      -8.74611308       3.53141284
O        5.91743938      -8.13536258       3.49695222
C        5.15884520      -7.38408480       4.34614737
O        3.94487378      -7.28294071       4.30713231
C        6.04433794      -6.63301670       5.29001659
H        5.62959197      -6.60662199       6.30100388
C        7.74577466      -6.57526849       3.02297263
H        7.04518777      -6.26120043       2.24468077
Br       9.44961622      -6.83432417       2.11455639
H        0.05840357      -6.07709293       4.35352417
H       -0.10058708      -5.38574454       2.73488777
H       -0.31378931      -4.35586155       4.20341861
H        0.22400112      -3.19063471       2.17761028
H        3.53132540      -0.52534586       1.58109218
H        4.96634261      -1.96421474       2.92696004
H        3.79097791      -5.15002705       4.43858648
H        8.49907105      -5.92373867       6.27710358
H        9.44564088      -6.86137439       5.09021148
C       -0.00445707       0.01189536      -1.78238275
H       -0.66409135       0.67374010      -2.43557963
H        0.65740317      -0.63156657      -2.45157240
C       -0.90989263      -0.90692880      -0.91072765
C        0.90977584       0.90977584      -0.90977584
C       -0.00465871       1.77757030       0.00794375
H       -0.66225468       2.44313916      -0.64384735
H        0.64322798       2.43503045       0.67728295
C       -1.78241447       0.00034974      -0.00472694
H       -2.45427497      -0.65498947       0.64260836
H       -2.43311707       0.67328779      -0.65473579
C       -0.91132561       0.90220522       0.91563759
C       -0.01476271      -0.02253852       1.78660255
H       -0.67934791      -0.69751639       2.42135241
H        0.63392994       0.61504881       2.47327442
C        0.01484550      -1.77751727      -0.01636693
H        0.67870853      -2.42144646      -0.68295456
H       -0.62264859      -2.45592969       0.64226336
C        1.78714474       0.01002794       0.00389507
H        2.44202412       0.67113390       0.66197326
H        2.45385902      -0.65136977      -0.64189061
C        0.91606151      -0.90478549       0.90901405
