149
Properties=species:S:1:pos:R:3 pbc="F F F"
C        0.00000000       0.00000000       0.00000000
C        4.89475143      -0.11635186      -1.67486809
O        4.28633350       0.97580492      -2.35671776
C        2.98972311       1.27302405      -2.01525350
C        2.18648113       0.48328538      -1.18177246
C        0.88230418       0.88230418      -0.88230418
C        0.37354409       2.07408093      -1.38165290
C        1.15970961       2.85082957      -2.23054012
C        2.45107941       2.44024377      -2.59040130
N        3.23373299       3.18417881      -3.51808206
C        2.67554759       3.93804330      -4.52972540
O        1.47704618       3.94433626      -4.80583626
C        3.59823547       4.90873053      -5.25964270
H        3.74660442       5.75587288      -4.57496937
C        2.91140672       5.44921663      -6.56009861
H        1.99803794       6.02044577      -6.37305604
C        4.06009222       6.26172535      -7.16149251
C        4.99964761       5.07226808      -7.21209802
H        6.00492166       5.25470461      -7.59806942
C        4.22112745       3.99424562      -7.96388826
H        4.41789049       3.99305395      -9.03996641
O        4.67149838       2.76601353      -7.38253019
C        5.05753845       3.00560359      -6.09622327
O        5.36929590       2.15402145      -5.28191738
C        4.96591064       4.46986408      -5.80188445
H        5.80384065       4.81370579      -5.18995933
C        2.75847352       4.28459378      -7.57123641
H        2.24333653       3.40753569      -7.17048468
Br       1.71080330       4.84156757      -9.11641385
H        5.93989995      -0.17331891      -1.99272757
H        4.41456344      -1.06427186      -1.94004158
H        4.88561341       0.03984246      -0.59032291
H        2.54568556      -0.45336125      -0.77020973
H       -0.63226020       2.40402194      -1.13628964
H        0.74193844       3.78228033      -2.60358656
H        4.18609765       2.83365770      -3.63012402
H        4.41081280       7.05991577      -6.49947267
H        3.83898798       6.68168471      -8.14684199
C        0.53967583      -4.50529112      -2.48765238
O       -0.83325802      -4.15518959      -2.63040857
C       -1.21725231      -2.93841281      -2.12233553
C       -0.40164534      -2.11137186      -1.33852177
C       -0.88230418      -0.88230418      -0.88230418
C       -2.15904195      -0.45170868      -1.21852730
C       -2.98272602      -1.28105503      -1.97729825
C       -2.54085572      -2.54364293      -2.39722583
N       -3.39944148      -3.43177579      -3.10477659
C       -4.76855335      -3.43962125      -2.93514168
O       -5.36278014      -2.78202209      -2.08241646
C       -5.58809917      -4.22325823      -3.95525130
H       -5.60448441      -3.60732622      -4.86563604
C       -7.06419405      -4.39719453      -3.45933338
H       -7.60287286      -3.45387927      -3.33478762
C       -7.61838073      -5.30822238      -4.55670698
C       -6.58154848      -6.38819359      -4.31427163
H       -6.63160181      -7.27167441      -4.95441947
C       -6.67388776      -6.68641246      -2.81896110
H       -7.35453318      -7.51046925      -2.58590843
O       -5.33637267      -7.03624245      -2.44742697
C       -4.46822402      -6.40315702      -3.28798427
O       -3.25563026      -6.38278185      -3.16682262
C       -5.22937436      -5.66466414      -4.34362066
H       -4.74555964      -5.74114583      -5.32080030
C       -7.07318833      -5.32399533      -2.21712004
H       -6.40634505      -5.00225708      -1.41275477
Br      -8.84965998      -5.39826962      -1.42085511
H        0.70302000      -5.45257213      -3.00975648
H        0.80120932      -4.65658237      -1.43496011
H        1.18962222      -3.75449937      -2.95090162
H        0.60152275      -2.40937619      -1.05468060
H       -2.53391674       0.51275629      -0.88689092
H       -3.97532164      -0.91953747      -2.23294621
H       -2.93666741      -4.28086714      -3.43234482
H       -7.55193704      -4.86347499      -5.55478921
H       -8.64393754      -5.64427102      -4.37930612
C       -4.12173410      -0.71447204       3.04600561
O       -3.73089454       0.63989651       3.24806512
C       -2.69577312       1.10667554       2.47555200
C       -1.90342966       0.30688106       1.64122825
C       -0.88230418       0.88230418       0.88230418
C       -0.65502814       2.25169954       0.92255024
C       -1.42416206       3.04794335       1.76897389
C       -2.41627031       2.48280894       2.58264523
N       -3.15446263       3.27306317       3.50846806
C       -2.63404077       4.40143085       4.10784467
O       -1.46271514       4.76154007       4.00296349
C       -3.61478770       5.31080444       4.84101656
H       -4.16136850       5.85697488       4.05910329
C       -2.84575182       6.35716410       5.71780605
H       -2.21295678       7.03735448       5.14122850
C       -4.01762305       7.03022341       6.43546362
C       -4.52023725       5.73027561       7.03350084
H       -5.41910054       5.78733911       7.65125603
C       -3.30526227       5.13301588       7.74098317
H       -3.24348520       5.40996539       8.79746028
O       -3.48607593       3.71847596       7.61549021
C       -4.20704218       3.46740139       6.48492174
O       -4.42509640       2.36346567       6.01667267
C       -4.62781562       4.75685743       5.85298612
H       -5.64604325       4.70221910       5.45924342
C       -2.12580176       5.61569420       6.87280774
H       -1.47624322       4.79945529       6.54565838
Br      -0.97187671       6.83244571       7.86446229
H       -5.00120161      -0.90872046       3.66682746
H       -3.33246654      -1.40464091       3.36250754
H       -4.40577591      -0.89281975       2.00282261
H       -2.04871697      -0.76588387       1.57970094
H        0.12255891       2.71173912       0.31887115
H       -1.23176749       4.11761241       1.77842542
H       -3.90655736       2.76608540       3.97723661
H       -4.73191722       7.49198299       5.74630103
H       -3.71542422       7.76491542       7.18717503
C       -0.70955896      -4.13854702       3.02427961
O        0.69914870      -3.93365961       2.98604787
C        1.14481346      -2.82628370       2.30690349
C        0.33397374      -1.99614267       1.52142256
C        0.88230418      -0.88230418       0.88230418
C        2.22605769      -0.56727996       1.03594027
C        3.04180673      -1.40316214       1.79611043
C        2.52428903      -2.55821803       2.39921741
N        3.36274703      -3.46136693       3.11187990
C        4.69585737      -3.64158854       2.80587037
O        5.25335891      -3.14575296       1.82810683
C        5.54179301      -4.40524646       3.81956923
H        5.72383904      -3.70576854       4.64783910
C        6.92675585      -4.79493388       3.19903223
H        7.54096887      -3.93635979       2.91421109
C        7.50623137      -5.64655493       4.33052378
C        6.34417369      -6.62103857       4.31880144
H        6.37636339      -7.43478203       5.04655026
C        6.23558361      -7.07832467       2.86535304
H        6.79805831      -7.99363441       2.65921814
O        4.83597274      -7.31022656       2.67384281
C        4.13763220      -6.50061801       3.52111509
O        2.92752092      -6.35533215       3.52238166
C        5.08468673      -5.74966997       4.40330247
H        4.70951998      -5.67102739       5.42695839
C        6.70055775      -5.83827924       2.07546671
H        5.98302542      -5.52650138       1.31183011
Br       8.35847893      -6.19406707       1.11623870
H       -0.90814845      -5.00315907       3.66429798
H       -1.10277115      -4.36548557       2.02761874
H       -1.22304683      -3.27571620       3.46310941
H       -0.71997814      -2.20580953       1.37670266
H        2.65705093       0.30970567       0.56070611
H        4.08857274      -1.13239174       1.90684084
H        2.85615262      -4.21477357       3.57895318
H        7.59894694      -5.09795520       5.27329910
H        8.46553489      -6.11299209       4.08898770
