182
Properties=species:S:1:pos:R:3 pbc="F F F"
C        1.77701413       1.77701413      -1.77701413
C        3.05586745       1.47007952      -2.18165505
C        3.50535573       2.57861706      -2.93886919
C        2.46566295       3.48648938      -2.97040800
O        1.39965818       2.98783158      -2.26806997
C        2.36810297       4.78990282      -3.58735798
O        3.34848318       5.44236001      -3.93249102
N        1.07574023       5.22458711      -3.80011955
C        0.75822370       6.46478862      -4.46724677
C        0.61030897       6.35743204      -6.00913577
C        0.25992349       7.75582048      -6.55994511
C        1.93743332       5.92333392      -6.66443914
C       -0.48008624       5.33931947      -6.41952058
N       -1.79677362       5.64870162      -5.89868474
C       -2.45261702       4.85305139      -4.98534682
O       -1.94330928       3.83716627      -4.50917801
C       -3.77024459       5.32691363      -4.62177337
C       -4.72782127       4.78970216      -3.78201743
C       -5.81195185       5.70032486      -3.76177539
C       -5.45747735       6.73513238      -4.59570294
O       -4.22565694       6.51713886      -5.13032157
H        3.60253201       0.56644478      -1.95281970
H        4.46569044       2.70954515      -3.42118780
H        0.31918768       4.59007735      -3.54039421
H        1.53415349       7.19968048      -4.21878553
H       -0.17455188       6.82728772      -4.01836290
H       -0.66787236       8.14266693      -6.12565706
H        0.13627813       7.73154532      -7.64868265
H        1.05341025       8.47739754      -6.33335083
H        2.23124747       4.91436477      -6.35746235
H        2.75121096       6.60990272      -6.40597175
H        1.85151971       5.91012841      -7.75707597
H       -0.19094324       4.32751180      -6.11278454
H       -0.58329548       5.31891707      -7.51109661
H       -2.30545272       6.44991549      -6.25880307
H       -4.63549413       3.85518565      -3.24432470
H       -6.73240999       5.61248905      -3.20144362
C       -6.26593170       7.89617425      -4.86400000
C       -6.94301223       8.86854683      -5.08869879
Br      -8.03779417      10.44079103      -5.45201773
C       -1.77701413      -1.77701413      -1.77701413
C       -3.11777065      -2.01302110      -1.57681026
C       -3.51494768      -2.91273923      -2.59515508
C       -2.39807152      -3.15453756      -3.36995125
O       -1.33425925      -2.44622682      -2.87507367
C       -2.21817511      -3.99578474      -4.53140391
O       -2.99403558      -4.89806133      -4.83123731
N       -1.12284965      -3.67178619      -5.30581105
C       -0.80473185      -4.34055135      -6.54497590
C       -1.45258073      -3.71465671      -7.80963934
C       -1.00386696      -4.53332758      -9.03849454
C       -2.99148401      -3.79304138      -7.74068099
C       -1.05795944      -2.22964530      -7.99114906
N        0.37029333      -2.01273092      -8.10817515
C        1.10695421      -1.31955235      -7.17318304
O        0.60728717      -0.86964633      -6.14067584
C        2.51056150      -1.19020103      -7.49880289
C        3.53902152      -0.54354230      -6.83937754
C        4.71812830      -0.78203021      -7.58624650
C        4.34028924      -1.55230906      -8.66133815
O        3.00307433      -1.79981670      -8.62506112
H       -3.73253563      -1.59866963      -0.79059122
H       -4.49772205      -3.33392873      -2.76477261
H       -0.56693611      -2.86548901      -5.01723412
H       -1.10323350      -5.39267848      -6.45670751
H        0.28866861      -4.32923458      -6.63053276
H        0.08581711      -4.54004817      -9.14622057
H       -1.42989035      -4.12468208      -9.96193366
H       -1.33132989      -5.57625458      -8.95657415
H       -3.39229608      -3.19458564      -6.91619287
H       -3.33103006      -4.82645448      -7.60960088
H       -3.44713026      -3.41038505      -8.66120877
H       -1.45589452      -1.62654277      -7.16691581
H       -1.50101694      -1.83310594      -8.91259533
H        0.85996546      -2.32107130      -8.94216000
H        3.43718635       0.02005176      -5.92125434
H        5.71837242      -0.43904781      -7.36084729
C        5.22992494      -2.04175670      -9.68241079
C        5.97499483      -2.45166909     -10.53755913
Br       7.17970984      -3.11446277     -11.92026166
C       -1.77701413       1.77701413       1.77701413
C       -3.11490962       2.02294840       1.56974399
C       -3.51287306       2.91866242       2.59130649
C       -2.39949311       3.14827396       3.37479326
O       -1.33707305       2.43630015       2.88218653
C       -2.22170557       3.98087734       4.54278086
O       -2.99368310       4.88620127       4.84344984
N       -1.13350113       3.64485701       5.32208875
C       -0.81910554       4.30359507       6.56755848
C       -1.47910336       3.67379777       7.82397566
C       -1.03308937       4.48165859       9.06094112
C       -3.01699524       3.76255347       7.74565767
C       -1.09519266       2.18513698       7.99842416
N        0.33085473       1.95826320       8.12320426
C        1.06907447       1.26635465       7.18850100
O        0.57320684       0.82631316       6.14992868
C        2.46969264       1.12586174       7.52227332
C        3.49821925       0.47682073       6.86529684
C        4.67398627       0.70289944       7.62123524
C        4.29416371       1.46869084       8.69883083
O        2.95882545       1.72505125       8.65557769
H       -3.72723198       1.61762349       0.77694102
H       -4.49400055       3.34508963       2.75733322
H       -0.58091860       2.83685586       5.03188478
H       -1.11027828       5.35817122       6.48417000
H        0.27362491       4.28467333       6.66005031
H        0.05589743       4.48065528       9.17569378
H       -1.46767549       4.06985790       9.97897271
H       -1.35332215       5.52718119       8.98365527
H       -3.41630714       3.17199646       6.91477100
H       -3.34905437       4.79895579       7.61907526
H       -3.48101754       3.37695073       8.66075581
H       -1.49165913       1.58991317       7.16778081
H       -1.54672168       1.78556465       8.91443188
H        0.81710132       2.25808246       8.96228470
H        3.39869976      -0.08020520       5.94292118
H        5.67344430       0.35492106       7.40004592
C        5.18031122       1.94582878       9.72872499
C        5.92245976       2.34543180      10.59126135
Br       7.12245119       2.99155609      11.98590969
C        1.77701413      -1.77701413       1.77701413
C        3.08199382      -1.50631177       2.11929642
C        3.51839024      -2.60193868       2.90251306
C        2.44651341      -3.46540633       3.01064058
O        1.37320659      -2.95181968       2.33053346
C        2.32354878      -4.73904346       3.68277152
O        3.29107088      -5.41654739       4.01571594
N        1.02495367      -5.11290636       3.96258685
C        0.68683216      -6.31265375       4.69077319
C        0.60524775      -6.13996388       6.23166516
C        0.22352457      -7.50082450       6.85134001
C        1.97340695      -5.73455315       6.81724628
C       -0.42763758      -5.06376991       6.64262147
N       -1.77515582      -5.33988396       6.18588459
C       -2.43594527      -4.55439702       5.26732944
O       -1.90732232      -3.57894764       4.73140968
C       -3.78443658      -4.98862330       4.97425569
C       -4.75351618      -4.44620747       4.15120702
C       -5.87194854      -5.31263580       4.20946114
C       -5.52448794      -6.32786647       5.06997944
O       -4.26468094      -6.13905664       5.54742778
H        3.65351769      -0.63488581       1.83339299
H        4.49155471      -2.75261983       3.35224885
H        0.28364979      -4.45901649       3.70699295
H        1.42318668      -7.08717745       4.44225537
H       -0.27653167      -6.65444867       4.29318174
H       -0.73522125      -7.86656524       6.46910764
H        0.14475492      -7.42956545       7.94218573
H        0.97880169      -8.26191491       6.62344201
H        2.29340233      -4.75081518       6.45885708
H        2.74901497      -6.46273614       6.55533432
H        1.93203949      -5.67571200       7.91097258
H       -0.11218677      -4.07700086       6.28453902
H       -0.48603842      -4.99708911       7.73566751
H       -2.29952217      -6.10550360       6.59728440
H       -4.64684066      -3.53762221       3.57323467
H       -6.81009749      -5.20959552       3.68202464
C       -6.36575168      -7.44425639       5.41573783
C       -7.07031006      -8.37923296       5.70531049
Br      -8.20952136      -9.89101098       6.17352498
C       -0.00445707       0.01189536      -1.78238275
H       -0.66409135       0.67374010      -2.43557963
H        0.65740317      -0.63156657      -2.45157240
C       -0.90989263      -0.90692880      -0.91072765
C        0.90977584       0.90977584      -0.90977584
C       -0.00465871       1.77757030       0.00794375
H       -0.66225468       2.44313916      -0.64384735
H        0.64322798       2.43503045       0.67728295
C       -1.78241447       0.00034974      -0.00472694
H       -2.45427497      -0.65498947       0.64260836
H       -2.43311707       0.67328779      -0.65473579
C       -0.91132561       0.90220522       0.91563759
C       -0.01476271      -0.02253852       1.78660255
H       -0.67934791      -0.69751639       2.42135241
H        0.63392994       0.61504881       2.47327442
C        0.01484550      -1.77751727      -0.01636693
H        0.67870853      -2.42144646      -0.68295456
H       -0.62264859      -2.45592969       0.64226336
C        1.78714474       0.01002794       0.00389507
H        2.44202412       0.67113390       0.66197326
H        2.45385902      -0.65136977      -0.64189061
C        0.91606151      -0.90478549       0.90901405
