161
Properties=species:S:1:pos:R:3 pbc="F F F"
C        0.00000000       0.00000000       0.00000000
C        0.86711011       0.86711011      -0.86711011
C        2.14596342       0.56017549      -1.27175102
C        2.59545170       1.66871304      -2.02896516
C        1.55575893       2.57658535      -2.06050398
O        0.48975416       2.07792756      -1.35816594
C        1.45819894       3.87999879      -2.67745396
O        2.43857916       4.53245598      -3.02258700
N        0.16583621       4.31468308      -2.89021552
C       -0.15168032       5.55488460      -3.55734275
C       -0.29959505       5.44752802      -5.09923175
C       -0.64998053       6.84591646      -5.65004108
C        1.02752929       5.01342990      -5.75453511
C       -1.38999027       4.42941544      -5.50961656
N       -2.70667765       4.73879759      -4.98878072
C       -3.36252105       3.94314736      -4.07544279
O       -2.85321330       2.92726225      -3.59927398
C       -4.68014862       4.41700961      -3.71186935
C       -5.63772530       3.87979814      -2.87211341
C       -6.72185587       4.79042084      -2.85187137
C       -6.36738137       5.82522835      -3.68579892
O       -5.13556097       5.60723483      -4.22041755
H        2.69262798      -0.34345925      -1.04291567
H        3.55578642       1.79964113      -2.51128377
H       -0.59071635       3.68017333      -2.63049018
H        0.62424946       6.28977645      -3.30888151
H       -1.08445590       5.91738369      -3.10845887
H       -1.57777638       7.23276291      -5.21575303
H       -0.77362589       6.82164129      -6.73877862
H        0.14350622       7.56749351      -5.42344680
H        1.32134345       4.00446075      -5.44755833
H        1.84130693       5.69999869      -5.49606773
H        0.94161568       5.00022438      -6.84717194
H       -1.10084726       3.41760778      -5.20288051
H       -1.49319951       4.40901305      -6.60119259
H       -3.21535675       5.54001147      -5.34889904
H       -5.54539816       2.94528163      -2.33442068
H       -7.64231402       4.70258502      -2.29153959
C       -7.17583573       6.98627023      -3.95409598
C       -7.85291625       7.95864280      -4.17879477
Br      -8.94769819       9.53088701      -4.54211370
C       -0.86711011      -0.86711011      -0.86711011
C       -2.17808494      -1.19367387      -0.60613113
C       -2.58404345      -2.05669498      -1.65239147
C       -1.50358670      -2.18731801      -2.50194355
O       -0.45372149      -1.44574986      -2.02637631
C       -1.34626158      -2.94953796      -3.71985216
O       -2.08656961      -3.87820981      -4.02884271
N       -0.31913978      -2.51758350      -4.53401154
C       -0.03841976      -3.09527015      -5.82685712
C       -0.79487627      -2.43892142      -7.01336704
C       -0.37493895      -3.15878905      -8.31224901
C       -2.32004844      -2.61283373      -6.86261213
C       -0.49610170      -0.92512915      -7.12781087
N        0.90811731      -0.61705477      -7.31196321
C        1.65907302       0.06509550      -6.38023763
O        1.19740648       0.42546375      -5.29619315
C        3.03120588       0.29618398      -6.77612020
C        4.05913920       0.96492541      -6.13825085
C        5.20309780       0.83974459      -6.96327873
C        4.80572956       0.11007805      -8.05945350
O        3.48914231      -0.21849945      -7.96273428
H       -2.76716634      -0.86173673       0.23681866
H       -3.54989718      -2.52559863      -1.79121551
H        0.20669975      -1.69706845      -4.22957847
H       -0.27135901      -4.16664553      -5.78490289
H        1.04554153      -3.01387047      -5.97305773
H        0.70501083      -3.09433862      -8.48141176
H       -0.87769921      -2.72493453      -9.18416029
H       -0.63763920      -4.22236730      -8.27444004
H       -2.70398732      -2.08679250      -5.98258270
H       -2.59239116      -3.67042178      -6.77456042
H       -2.85069328      -2.20681382      -7.73150491
H       -0.87745035      -0.39427065      -6.24792004
H       -1.01503739      -0.50446950      -7.99749923
H        1.36370227      -0.84811818      -8.18913785
H        3.98072414       1.46880231      -5.18383059
H        6.19410034       1.22860547      -6.77451642
C        5.65895893      -0.26705278      -9.15643663
C        6.37353853      -0.58289985     -10.07516000
Br       7.52895330      -1.09359784     -11.56065798
C       -0.86711011       0.86711011       0.86711011
C       -1.31615631       2.12510415       0.53662949
C       -2.05495922       2.58479427       1.65337642
C       -2.03196415       1.57078630       2.59009781
O       -1.31369943       0.51084099       2.10130723
C       -2.60972927       1.49324864       3.91267378
O       -2.96440036       2.48184547       4.54737630
N       -2.77369735       0.20835561       4.38868186
C       -3.39710681      -0.09214219       5.65558241
C       -4.93655561      -0.28549613       5.59610524
C       -5.43844490      -0.61114511       7.01867721
C       -5.64094278       1.01021475       5.14433678
C       -5.34377343      -1.41521954       4.62048784
N       -4.77748302      -2.70774507       4.95116272
C       -3.86820112      -3.36045310       4.14832110
O       -3.43485398      -2.86721894       3.10568789
C       -3.45448857      -4.65359042       4.64783218
C       -2.60305067      -5.60249685       4.11363243
C       -2.52697948      -6.65940224       5.05285909
C       -3.34177465      -6.29885708       6.10072833
O       -3.91691118      -5.08892099       5.86410123
H       -1.12791349       2.65202937      -0.38785845
H       -2.56051916       3.53479202       1.77140014
H       -2.51021851      -0.55843456       3.76816321
H       -3.15057842       0.71086727       6.36146173
H       -2.91213268      -1.00153401       6.03078799
H       -4.96752510      -1.51527318       7.41848764
H       -6.52349425      -0.76539932       7.02869909
H       -5.21463127       0.20842719       7.71138808
H       -5.37035472       1.28365524       4.11935256
H       -5.38682149       1.84994822       5.80060365
H       -6.73065298       0.89386912       5.16448991
H       -5.07337174      -1.14653366       3.59280294
H       -6.43213170      -1.54902207       4.63389650
H       -5.10080693      -3.20323807       5.77598491
H       -2.09416167      -5.52191377       3.16205624
H       -1.94340995      -7.56618193       4.97458258
C       -3.55492885      -7.08115701       7.29075863
C       -3.73344550      -7.73633319       8.28740901
Br      -4.02209181      -8.79569767       9.89890838
C        0.86711011      -0.86711011       0.86711011
C        0.94342705      -2.23912796       0.79533493
C        1.83961462      -2.63699613       1.81651915
C        2.27449019      -1.48232268       2.43603539
O        1.68730672      -0.39479822       1.84374272
C        3.18412363      -1.28903880       3.54248926
O        3.48198669      -2.18322081       4.32841464
N        3.72935894      -0.02354989       3.61782598
C        4.71328495       0.35626459       4.60352667
C        6.18790303       0.11961745       4.17887914
C        7.10363416       0.58733199       5.32967484
C        6.46498690      -1.38038796       3.95011945
C        6.54695670       0.87523764       2.87732267
N        6.36734852       2.31079357       2.96434572
C        5.43325226       3.00029178       2.22310863
O        4.64787020       2.43495110       1.46040383
C        5.44211446       4.43095611       2.43757199
C        4.69456114       5.43966474       1.85928985
C        5.08893949       6.64928904       2.48078588
C        6.05898662       6.31055713       3.39521640
O        6.28880251       4.96987883       3.37316775
H        0.41322946      -2.87657127       0.10228368
H        2.15115465      -3.64123576       2.07432090
H        3.47540880       0.64049251       2.88503088
H        4.50178707      -0.18960752       5.53151284
H        4.54302163       1.41854927       4.81691430
H        6.95202472       1.64602097       5.56473580
H        8.16041383       0.44818397       5.07456417
H        6.90664360       0.01713963       6.24494257
H        5.88295196      -1.77798545       3.11242510
H        6.22565778      -1.96908928       4.84262629
H        7.52101400      -1.55439386       3.71360415
H        5.96536489       0.48151356       2.03578970
H        7.60352977       0.71664515       2.63012151
H        6.99201279       2.86239007       3.54393104
H        3.94717078       5.30184915       1.08898251
H        4.70548233       7.64160971       2.28793799
C        6.73545925       7.23680531       4.26587654
C        7.30200508       8.01253817       4.99505441
Br       8.21806176       9.26683259       6.17407335
