153
Properties=species:S:1:pos:R:3 pbc="F F F"
C        0.00000000       0.00000000       0.00000000
C        0.86711011       0.86711011      -0.86711011
C        2.14596342       0.56017549      -1.27175102
C        2.59545170       1.66871304      -2.02896516
C        1.55575893       2.57658535      -2.06050398
O        0.48975416       2.07792756      -1.35816594
C        1.45819894       3.87999879      -2.67745396
O        2.43857916       4.53245598      -3.02258700
N        0.16583621       4.31468308      -2.89021552
C       -0.15168032       5.55488460      -3.55734275
C       -0.29959505       5.44752802      -5.09923175
C       -0.64998053       6.84591646      -5.65004108
C        1.02752929       5.01342990      -5.75453511
C       -1.38999027       4.42941544      -5.50961656
N       -2.70667765       4.73879759      -4.98878072
C       -3.36252105       3.94314736      -4.07544279
O       -2.85321330       2.92726225      -3.59927398
C       -4.68014862       4.41700961      -3.71186935
C       -5.63772530       3.87979814      -2.87211341
C       -6.72185587       4.79042084      -2.85187137
C       -6.36738137       5.82522835      -3.68579892
Br      -7.41479023       7.32943887      -4.03339642
O       -5.13556097       5.60723483      -4.22041755
H        2.69262798      -0.34345925      -1.04291567
H        3.55578642       1.79964113      -2.51128377
H       -0.59071635       3.68017333      -2.63049018
H        0.62424946       6.28977645      -3.30888151
H       -1.08445590       5.91738369      -3.10845887
H       -1.57777638       7.23276291      -5.21575303
H       -0.77362589       6.82164129      -6.73877862
H        0.14350622       7.56749351      -5.42344680
H        1.32134345       4.00446075      -5.44755833
H        1.84130693       5.69999869      -5.49606773
H        0.94161568       5.00022438      -6.84717194
H       -1.10084726       3.41760778      -5.20288051
H       -1.49319951       4.40901305      -6.60119259
H       -3.21535675       5.54001147      -5.34889904
H       -5.54539816       2.94528163      -2.33442068
H       -7.64231402       4.70258502      -2.29153959
C       -0.86711011      -0.86711011      -0.86711011
C       -2.19659264      -1.14042555      -0.64087175
C       -2.59695289      -2.02507127      -1.67110574
C       -1.49385732      -2.22106853      -2.47792241
O       -0.43545390      -1.49901360      -1.99138015
C       -1.32235870      -3.02980553      -3.66348746
O       -2.08360770      -3.94333587      -3.96667857
N       -0.25425503      -2.66086884      -4.45561095
C        0.04938626      -3.29200553      -5.71792776
C       -0.64380663      -2.65217295      -6.95118514
C       -0.20582682      -3.43019034      -8.20995984
C       -2.17827074      -2.76966449      -6.84755908
C       -0.28917476      -1.15408524      -7.10578172
N        1.13023505      -0.89969777      -7.25143794
C        1.87276501      -0.21121328      -6.31762084
O        1.38785024       0.20168339      -5.26285656
C        3.26454265      -0.03997528      -6.67329771
C        4.29309228       0.61568625      -6.02296478
C        5.45898433       0.42384986      -6.80327053
C        5.07348756      -0.32961003      -7.88752342
Br       6.20824680      -0.90378283      -9.25250903
O        3.74382245      -0.61043248      -7.82548138
H       -2.80169592      -0.76000791       0.16961942
H       -3.57326917      -2.46593585      -1.82750630
H        0.28918415      -1.84835566      -4.16077565
H       -0.22175508      -4.35289853      -5.64825381
H        1.13979739      -3.25200735      -5.82917670
H        0.88075888      -3.40778211      -8.34371633
H       -0.66383601      -3.01019318      -9.11276484
H       -0.50628629      -4.48244344      -8.14571681
H       -2.57299324      -2.20094483      -5.99942445
H       -2.48983441      -3.81387350      -6.73366545
H       -2.66519620      -2.37643276      -7.74738305
H       -0.68113872      -0.58064530      -6.25785701
H       -0.76387151      -0.74664982      -8.00648479
H        1.60663122      -1.17607845      -8.10410653
H        4.20028511       1.15462410      -5.08921336
H        6.45598085       0.78565123      -6.59344269
C       -0.86711011       0.86711011       0.86711011
C       -1.40090228       2.08012075       0.49686691
C       -2.10480902       2.56129825       1.62702264
C       -1.97774837       1.60265767       2.61244222
O       -1.22886744       0.55624947       2.14073075
C       -2.48098115       1.56776493       3.96690561
O       -2.85582554       2.56988677       4.56790982
N       -2.54943096       0.30408436       4.51721950
C       -3.08886070       0.04144973       5.83023659
C       -4.61642367      -0.23450597       5.86524702
C       -5.02522328      -0.50739045       7.32814417
C       -5.41318893       0.99622162       5.38608376
C       -5.01126388      -1.43555853       4.97333637
N       -4.35866095      -2.67690672       5.33914644
C       -3.45790201      -3.32451839       4.52268550
O       -3.10690576      -2.86728233       3.43369949
C       -2.94864617      -4.56515172       5.06523589
C       -2.07540751      -5.49641197       4.53519071
C       -1.89294338      -6.49493594       5.52242890
C       -2.67077245      -6.12033582       6.59320927
Br      -2.81063553      -7.06089394       8.19830347
O       -3.32279359      -4.95665181       6.32594963
H       -1.29002481       2.56469943      -0.46263983
H       -2.65481433       3.48881236       1.72308463
H       -2.27692651      -0.48081914       3.92383980
H       -2.85036403       0.89361177       6.47893162
H       -2.53600737      -0.81963877       6.22501806
H       -4.48539543      -1.36261252       7.74795665
H       -6.09821534      -0.71696979       7.40554848
H       -4.81096686       0.35938740       7.96409228
H       -5.21153854       1.22680949       4.33501449
H       -5.17170644       1.88268087       5.98298605
H       -6.49237821       0.82475560       5.47187819
H       -4.80967919      -1.20986925       3.91983109
H       -6.08849937      -1.62473079       5.05323754
H       -4.61112806      -3.14260997       6.20503567
H       -1.62176666      -5.44174526       3.55428275
H       -1.26545404      -7.37313038       5.45948694
C        0.86711011      -0.86711011       0.86711011
C        1.09762238      -2.20940641       0.67086114
C        1.92788829      -2.62604608       1.73919554
C        2.17331077      -1.50815433       2.51138317
O        1.53264411      -0.42538610       1.96781744
C        2.94480743      -1.34780415       3.72304011
O        3.25952715      -2.28831611       4.44577888
N        3.34040080      -0.05082693       3.97950709
C        4.17702453       0.31432999       5.09785249
C        5.70284083       0.26945662       4.81378050
C        6.44644951       0.69713566       6.09666315
C        6.16106986      -1.16300260       4.47142184
C        6.10317864       1.19241067       3.63827376
N        5.76213258       2.58587793       3.84464603
C        4.83566405       3.25716380       3.07756886
O        4.19380115       2.70370455       2.18322633
C        4.66921959       4.65037646       3.42988721
C        3.87702449       5.63805271       2.87521447
C        4.07625827       6.80615928       3.65033735
C        4.98360514       6.46673089       4.62677165
Br       5.61152854       7.61758118       5.95409770
O        5.35776962       5.16500912       4.49933092
H        0.70924013      -2.81689402      -0.13404974
H        2.31938910      -3.61714014       1.93018209
H        3.08878874       0.66052642       3.29168485
H        3.93638884      -0.34644351       5.94007507
H        3.87320262       1.32576152       5.39394557
H        6.15936317       1.70448600       6.41586239
H        7.53184841       0.68978940       5.94473501
H        6.22402832       0.01508330       6.92550152
H        5.70959469      -1.52262620       3.54114162
H        5.90097026      -1.86503065       5.27137245
H        7.24767593      -1.20691639       4.33441968
H        5.65209742       0.83707664       2.70462025
H        7.18970150       1.16495277       3.49225740
H        6.26427905       3.12986049       4.53913520
H        3.22736554       5.51209952       2.01903813
H        3.60857045       7.77145711       3.51469727
