137
Properties=species:S:1:pos:R:3 pbc="F F F"
C        0.00000000       0.00000000       0.00000000
C       -0.03818035       6.65049189      -4.15299319
C        1.48178136       6.79665574      -4.09925170
H        1.72326759       7.85286403      -4.26932007
C        2.04901594       6.41567689      -2.71158491
N        1.72516450       5.06935002      -2.25978777
C        2.33424967       3.93375971      -2.75062258
O        3.14234783       3.99483993      -3.67490086
C        1.95273157       2.67418853      -2.13232649
C        2.54888861       1.44162155      -2.34598011
C        1.92327960       0.39292362      -1.60945783
C        0.87171841       0.87171841      -0.87171841
S        0.64202120       2.54171382      -1.03341227
N        2.10552710       6.02377226      -5.16530528
C        2.40647613       6.55082823      -6.40383379
O        2.14976421       7.72009356      -6.68136784
C        3.05743724       5.61571199      -7.31086742
C        3.00868064       4.23025331      -7.34310974
C        3.79546913       3.67790573      -8.39959661
C        4.41709497       4.66548853      -9.11880378
S        4.05234610       6.22502854      -8.57257607
H       -0.35231095       5.61769011      -3.96710600
H       -0.42389375       6.93417841      -5.13819761
H       -0.51560664       7.29299125      -3.40574568
H        1.65878258       7.10247823      -1.95228852
H        3.14141008       6.51092461      -2.72174065
H        1.06935630       4.95910549      -1.49580665
H        3.39921194       1.30627974      -3.00613190
H        2.23320452      -0.64484965      -1.63476443
H        2.49552899       5.11624094      -4.91849968
H        2.42556135       3.63260284      -6.65233159
H        3.89124383       2.61890857      -8.60593102
C        5.28993303       4.40602878     -10.23434596
C        6.02093490       4.18873124     -11.16861254
Br       7.20290310       3.83737950     -12.67924258
C       -7.39217845      -0.93007128      -2.44305501
C       -6.97612716      -1.71607641      -3.68548523
H       -7.78808621      -1.63870190      -4.41866358
C       -5.70761805      -1.12466438      -4.34399531
N       -4.54272477      -1.03766957      -3.47390795
C       -3.77425438      -2.12601981      -3.11835778
O       -4.08843582      -3.26453471      -3.45911809
C       -2.59752362      -1.85264760      -2.30907536
C       -1.60110029      -2.75708377      -1.97830620
C       -0.59414615      -2.18597015      -1.14554476
C       -0.87171841      -0.87171841      -0.87171841
S       -2.29298120      -0.31730753      -1.60685856
N       -6.80586697      -3.12653047      -3.36220720
C       -7.81561282      -4.05761800      -3.48790734
O       -8.93642411      -3.73765065      -3.87715085
C       -7.42328736      -5.41717770      -3.14355159
C       -6.41776501      -5.86441766      -2.29986102
C       -6.35445719      -7.28963424      -2.22888005
C       -7.30687906      -7.86535845      -3.02914975
S       -8.28216971      -6.73788792      -3.82989308
H       -6.61234442      -0.94618319      -1.67395756
H       -8.29715682      -1.35543748      -1.99588797
H       -7.60023702       0.11450564      -2.69739892
H       -5.91361432      -0.10675308      -4.69318193
H       -5.42929348      -1.72937006      -5.21541181
H       -4.23422426      -0.12304356      -3.16700063
H       -1.60223390      -3.78557205      -2.32381764
H        0.27116712      -2.72103690      -0.77324952
H       -5.85578688      -3.46098610      -3.21349662
H       -5.76183798      -5.20521991      -1.74343790
H       -5.64702074      -7.84436189      -1.62470079
C       -7.46935414      -9.28902094      -3.17193268
C       -7.60542701     -10.48133828      -3.29151339
Br      -7.82544534     -12.40921457      -3.48486527
C       -7.18548104       0.47858696       3.10123674
C       -6.73832993       1.42544214       4.21391672
H       -7.46506874       1.34868069       5.03170226
C       -5.35872209       1.02806124       4.78949441
N       -4.27833083       0.96108760       3.81488386
C       -3.66437320       2.07403852       3.28022025
O       -4.06192391       3.20714692       3.54301779
C       -2.54711479       1.82998598       2.38214581
C       -1.68597001       2.78491451       1.86560575
C       -0.70800046       2.22762486       0.99003574
C       -0.87171841       0.87171841       0.87171841
S       -2.15183822       0.26542485       1.79988422
N       -6.74716287       2.80427886       3.74316291
C       -7.83204199       3.64405147       3.88504470
O       -8.87171625       3.26216238       4.41734698
C       -7.61769681       4.99123402       3.37508582
C       -6.74826148       5.44092491       2.39285730
C       -6.84074319       6.85057965       2.18164863
C       -7.76826418       7.41418940       3.01893369
S       -8.54095303       6.28938969       4.01960799
H       -6.48755229       0.48792353       2.25700935
H       -8.16794519       0.76785066       2.71268643
H       -7.25868422      -0.54874516       3.47319123
H       -5.42372171       0.03720487       5.25262275
H       -5.06401564       1.74378315       5.56627656
H       -3.90653733       0.05263883       3.56509229
H       -1.76166776       3.83908935       2.11086647
H        0.05789930       2.80016321       0.48085540
H       -5.85536398       3.20947734       3.46542828
H       -6.08261479       4.79212536       1.83575564
H       -6.25505935       7.40354652       1.45747755
C       -8.06397895       8.82329261       3.04303621
C       -8.31164006      10.00341654       3.06322207
Br      -8.71208714      11.91157714       3.09586091
C       -0.31056996      -5.38978421       5.68609049
C        1.07578335      -5.94269454       5.35921091
H        1.12935379      -6.96599866       5.75009924
C        1.31980634      -6.02257706       3.83389434
N        1.17393505      -4.76265718       3.11771006
C        2.11332028      -3.75375735       3.15155434
O        3.10719881      -3.83449576       3.87039405
C        1.85089869      -2.59470088       2.31364702
C        2.72451668      -1.54853702       2.06343657
C        2.15713923      -0.54761308       1.22090875
C        0.87171841      -0.87171841       0.87171841
S        0.35220880      -2.34931183       1.51562667
N        2.10671925      -5.15989227       6.02799312
C        2.61009278      -5.47930795       7.27173743
O        2.19977485      -6.45429345       7.89715731
C        3.65800382      -4.58398173       7.74203111
C        3.90793865      -3.26000904       7.41409600
C        5.04409911      -2.73016481       8.09870755
C        5.61579420      -3.67608366       8.90950941
S        4.80380491      -5.16056086       8.88558494
H       -0.44158997      -4.37247935       5.30159578
H       -0.47054557      -5.35002124       6.76900661
H       -1.09194952      -6.02264317       5.25243664
H        0.60812402      -6.72282672       3.38259859
H        2.33117898      -6.40061272       3.64228365
H        0.37624540      -4.64289187       2.50513117
H        3.72864179      -1.51034849       2.47263331
H        2.67081658       0.35222269       0.90452542
H        2.59642393      -4.46038403       5.47346165
H        3.29920540      -2.68553167       6.72575871
H        5.40870393      -1.71587021       7.99150928
C        6.78794025      -3.43261135       9.70975616
C        7.76961257      -3.22870329      10.37996282
Br       9.35689368      -2.89900120      11.46363030
