129
Properties=species:S:1:pos:R:3 pbc="F F F"
C        0.00000000       0.00000000       0.00000000
C       -0.03818035       6.65049189      -4.15299319
C        1.48178136       6.79665574      -4.09925170
H        1.72326759       7.85286403      -4.26932007
C        2.04901594       6.41567689      -2.71158491
N        1.72516450       5.06935002      -2.25978777
C        2.33424967       3.93375971      -2.75062258
O        3.14234783       3.99483993      -3.67490086
C        1.95273157       2.67418853      -2.13232649
C        2.54888861       1.44162155      -2.34598011
C        1.92327960       0.39292362      -1.60945783
C        0.87171841       0.87171841      -0.87171841
S        0.64202120       2.54171382      -1.03341227
N        2.10552710       6.02377226      -5.16530528
C        2.40647613       6.55082823      -6.40383379
O        2.14976421       7.72009356      -6.68136784
C        3.05743724       5.61571199      -7.31086742
C        3.00868064       4.23025331      -7.34310974
C        3.79546913       3.67790573      -8.39959661
C        4.41709497       4.66548853      -9.11880378
Br       5.55255592       4.32796153     -10.56999461
S        4.05234610       6.22502854      -8.57257607
H       -0.35231095       5.61769011      -3.96710600
H       -0.42389375       6.93417841      -5.13819761
H       -0.51560664       7.29299125      -3.40574568
H        1.65878258       7.10247823      -1.95228852
H        3.14141008       6.51092461      -2.72174065
H        1.06935630       4.95910549      -1.49580665
H        3.39921194       1.30627974      -3.00613190
H        2.23320452      -0.64484965      -1.63476443
H        2.49552899       5.11624094      -4.91849968
H        2.42556135       3.63260284      -6.65233159
H        3.89124383       2.61890857      -8.60593102
C       -7.48289069      -1.86152334      -1.42089071
C       -7.18251473      -2.36239021      -2.83278386
H       -8.11516015      -2.32188079      -3.40841074
C       -6.15751379      -1.45983513      -3.55892882
N       -4.88215098      -1.29793814      -2.87421317
C       -3.90633083      -2.27165136      -2.84064978
O       -4.10030355      -3.38303729      -3.32874779
C       -2.65864323      -1.91725402      -2.18334933
C       -1.49359397      -2.66750025      -2.17539604
C       -0.45185062      -2.05776302      -1.41604742
C       -0.87171841      -0.87171841      -0.87171841
S       -2.46927334      -0.47669725      -1.27117670
N       -6.74510275      -3.75175026      -2.79775164
C       -7.60796544      -4.81907866      -2.93409406
O       -8.81580573      -4.65040268      -3.08501719
C       -6.95864089      -6.12227466      -2.90310110
C       -5.76192577      -6.50426934      -2.31584857
C       -5.47155332      -7.88893844      -2.51247972
C       -6.45375665      -8.49828725      -3.24934336
Br      -6.41176361     -10.30821693      -3.73053151
S       -7.71650702      -7.45620391      -3.67723978
H       -6.58430609      -1.85370370      -0.79447537
H       -8.21768851      -2.50533785      -0.92545591
H       -7.88918528      -0.84502963      -1.44891539
H       -6.57479835      -0.45450956      -3.68424142
H       -5.95184483      -1.86547610      -4.55675441
H       -4.66583585      -0.40005520      -2.45837739
H       -1.40082640      -3.61498671      -2.69581047
H        0.53721938      -2.47883874      -1.28149994
H       -5.74422191      -3.92870954      -2.85733815
H       -5.12436943      -5.83007672      -1.75604964
H       -4.59129983      -8.39264262      -2.13214097
C       -7.41040513       0.99331796       2.36158165
C       -7.00035672       1.75828294       3.61904914
H       -7.82249212       1.68204108       4.34091849
C       -5.74786804       1.14253916       4.28587054
N       -4.57317816       1.05166600       3.42945812
C       -3.78662348       2.13452849       3.09748000
O       -4.09078108       3.27257735       3.44873019
C       -2.60321493       1.85639273       2.29963893
C       -1.59137113       2.75215713       1.99296201
C       -0.58115586       2.17878408       1.16572113
C       -0.87171841       0.87171841       0.87171841
S       -2.30908154       0.32624857       1.58181718
N       -6.80827836       3.17040750       3.31591879
C       -7.80775867       4.11262041       3.44075907
O       -8.93736793       3.80207976       3.81177792
C       -7.39402201       5.47129673       3.11869791
C       -6.37229807       5.91626988       2.29347574
C       -6.29018123       7.34134467       2.24144557
C       -7.24540138       7.91904179       3.03694410
Br      -7.43581275       9.77112078       3.24357852
S       -8.24490249       6.79410194       3.81094629
H       -6.62070243       1.00916751       1.60261523
H       -8.30419900       1.43575792       1.90852536
H       -7.63479904      -0.05164030       2.59997155
H       -5.97107218       0.12302379       4.61945336
H       -5.47308014       1.73265082       5.16834438
H       -4.27231717       0.13711698       3.11483430
H       -1.58397457       3.77615201       2.35149701
H        0.29548440       2.70742927       0.81117443
H       -5.85225294       3.49458401       3.18343266
H       -5.71767888       5.25582185       1.73699506
H       -5.56819340       7.89457233       1.65331769
C       -0.25233232      -4.90881107       6.10882598
C        1.05816644      -5.59433826       5.72518410
H        1.06667359      -6.58667202       6.19210607
C        1.17197301      -5.80697896       4.19732577
N        1.06315533      -4.59625177       3.39489518
C        2.07473483      -3.66654206       3.27735508
O        3.11447573      -3.77327135       3.92434154
C        1.83275897      -2.55575211       2.37073550
C        2.75887530      -1.60486298       1.97275199
C        2.20163443      -0.62704540       1.09698123
C        0.87171841      -0.87171841       0.87171841
S        0.29713925      -2.25062237       1.66938566
N        2.19502182      -4.84944684       6.25013599
C        2.77169870      -5.11483445       7.47460501
O        2.34159494      -6.00432949       8.20530118
C        3.91782753      -4.27424642       7.79194270
C        4.23845471      -3.00280301       7.34078597
C        5.46233573      -2.51663606       7.89399969
C        6.02541049      -3.44249065       8.73348613
Br       7.64843452      -3.17289928       9.62917825
S        5.10583941      -4.85442636       8.88968494
H       -0.33775394      -3.91572916       5.65450994
H       -0.32120168      -4.77576106       7.19392290
H       -1.11104091      -5.50724339       5.78692781
H        0.37610219      -6.47932031       3.85812682
H        2.13366616      -6.27842464       3.96198455
H        0.22988091      -4.45861159       2.83577595
H        3.79273005      -1.61726763       2.30162591
H        2.75375648       0.20244715       0.67180998
H        2.68922470      -4.23487917       5.60616574
H        3.62076180      -2.43404737       6.65568661
H        5.89164894      -1.54579535       7.67863913
