161
Properties=species:S:1:pos:R:3 pbc="F F F"
C        0.00000000       0.00000000       0.00000000
C        0.88252299       0.88252299      -0.88252299
C        2.26240140       0.70106433      -0.88048453
C        3.06744096       1.50741009      -1.69183937
C        2.50819772       2.50678199      -2.50575935
C        1.11335252       2.66175196      -2.49330629
C        0.30065903       1.85817755      -1.68734582
C        3.36015395       3.35098750      -3.37093839
C        4.60981911       3.72850500      -3.03359922
C        5.09065546       4.53426322      -4.13828563
C        6.27874571       5.39534349      -4.12315323
C        7.52256473       4.86409984      -3.75501694
C        8.66216983       5.67275794      -3.72481451
C        8.55914592       7.02168798      -4.06105113
C        7.33003719       7.56962897      -4.42104238
C        6.19410929       6.75680061      -4.44488791
N        4.06318232       4.58333198      -5.08144220
N        2.87397205       3.78501470      -4.56630300
C        4.10249912       5.03299891      -6.42585018
C        5.27704257       5.02676839      -7.19013130
C        5.28709481       5.47866553      -8.51463458
C        4.11377570       5.94523897      -9.10157763
C        2.93097121       5.94691635      -8.36739076
C        2.92892783       5.48641740      -7.04720297
H        2.72571336      -0.06318991      -0.26510517
H        4.14071597       1.34160451      -1.70378313
H        0.65965813       3.42225908      -3.12615760
H       -0.77348340       2.00594779      -1.70544168
H        5.15419619       3.52475284      -2.13142425
H        7.60141430       3.80932217      -3.50206590
H        9.61605457       5.23862012      -3.44156659
H        7.23693464       8.61776246      -4.68552115
H        5.22811496       7.17592095      -4.72156464
H        6.19150505       4.63326673      -6.75968374
H        6.21257159       5.45202045      -9.08127308
H        4.11875587       6.29453173     -10.12871528
H        2.00623873       6.29922063      -8.81119731
H        2.00579754       5.48697462      -6.47251595
C        9.73339298       7.85480773      -4.03545172
C       10.71682489       8.55254551      -4.01401222
Br      12.30695112       9.68072850      -3.97934635
C       -0.88252299      -0.88252299      -0.88252299
C       -0.33638600      -1.99928696      -1.50827729
C       -1.14699818      -2.80740473      -2.31228751
C       -2.50554120      -2.50730250      -2.50789536
C       -3.03069341      -1.37954279      -1.85817458
C       -2.22822147      -0.56764473      -1.05031621
C       -3.36335643      -3.36907810      -3.34964530
C       -2.91133342      -4.02023200      -4.44035791
C       -4.05117536      -4.74210887      -4.96992008
C       -4.13424884      -5.36886929      -6.29412430
C       -3.15702426      -6.29091427      -6.69374298
C       -3.21508838      -6.88896781      -7.95568608
C       -4.25369245      -6.56204454      -8.82614804
C       -5.22917930      -5.64140901      -8.45012023
C       -5.16274065      -5.04399929      -7.18905787
N       -5.13317648      -4.45989366      -4.13488636
N       -4.67807928      -3.51831576      -3.02889471
C       -6.40189569      -5.09015449      -4.06929804
C       -6.60730508      -6.41739556      -4.46924163
C       -7.87139392      -7.01344194      -4.39555906
C       -8.95810987      -6.28755400      -3.91492844
C       -8.77594353      -4.97210676      -3.49722803
C       -7.50782572      -4.38736853      -3.56735396
H        0.70859186      -2.26005758      -1.37616292
H       -0.71893403      -3.69146088      -2.77570870
H       -4.08391583      -1.13704170      -1.98711728
H       -2.66963857       0.29463228      -0.56289978
H       -1.93056834      -4.00399634      -4.87580859
H       -2.35310271      -6.55075585      -6.00894382
H       -2.45013897      -7.60417288      -8.24192942
H       -6.04285798      -5.37914795      -9.11821233
H       -5.91822205      -4.32068857      -6.88668994
H       -5.76453051      -7.00770884      -4.81221618
H       -7.99388997      -8.04652364      -4.70545151
H       -9.93866650      -6.74798936      -3.85534702
H       -9.60945776      -4.39456597      -3.11263293
H       -7.36394257      -3.36002489      -3.24132065
C       -4.31769430      -7.18137510     -10.12458303
C       -4.37129585      -7.70006444     -11.21202233
Br      -4.45796502      -8.53874124     -12.97031972
C       -0.88252299       0.88252299       0.88252299
C       -1.96621200       0.32394467       1.55379358
C       -2.76998693       1.13292326       2.36378023
C       -2.50827664       2.50590763       2.50655480
C       -1.40430624       3.04000832       1.82409620
C       -0.59373494       2.23803545       1.01441201
C       -3.35287520       3.35726162       3.37194302
C       -4.67603403       3.15801705       3.53787226
C       -5.11993162       4.19329552       4.44997717
C       -6.51386704       4.56494619       4.71842921
C       -7.43293441       3.58660156       5.12214553
C       -8.76682058       3.92145327       5.37146842
C       -9.18719649       5.24115814       5.21353041
C       -8.29043202       6.22562422       4.80465231
C       -6.95963974       5.88331959       4.55283848
N       -3.99831138       4.95954971       4.77009542
N       -2.78707201       4.40301783       4.03519991
C       -3.83935369       5.93139992       5.79059460
C       -4.60380157       5.92511149       6.96502920
C       -4.42698187       6.89848240       7.95493065
C       -3.47422396       7.89985993       7.78650841
C       -2.69193658       7.91824468       6.63509707
C       -2.87038688       6.93720453       5.65495679
H       -2.19436226      -0.73330353       1.46656990
H       -3.59783921       0.68371771       2.90454670
H       -1.17746805       4.09912243       1.93148433
H        0.25175648       2.68576654       0.50389601
H       -5.30843588       2.42124062       3.08069678
H       -7.09986395       2.55965281       5.25328562
H       -9.45991931       3.14818844       5.68813353
H       -8.60510945       7.25632156       4.67878725
H       -6.25150170       6.64450828       4.22959057
H       -5.32503282       5.13158245       7.12784026
H       -5.02999102       6.85920424       8.85666986
H       -3.33421036       8.65455431       8.55323820
H       -1.93961688       8.68601484       6.49102496
H       -2.25999977       6.95016192       4.75512642
C      -10.55995794       5.58856726       5.47512723
C      -11.70964566       5.87952240       5.69421457
Br     -13.56859346       6.34997225       6.04846027
C        0.88252299      -0.88252299       0.88252299
C        0.82624110      -2.26689338       0.75081577
C        1.63763491      -3.07211409       1.55694141
C        2.50571164      -2.50815931       2.50686811
C        2.54708846      -1.10923781       2.61208450
C        1.74144647      -0.29647012       1.80826581
C        3.37059647      -3.36085762       3.35062575
C        3.00396944      -4.58381907       3.78413483
C        4.11952666      -5.07577259       4.56790505
C        4.09416795      -6.23205287       5.47102161
C        3.66441380      -7.47951386       4.99775385
C        3.62380246      -8.58864281       5.84729700
C        4.01153255      -8.45112613       7.17922635
C        4.43324126      -7.21748754       7.66997974
C        4.46722690      -6.11194766       6.81662325
N        5.09882040      -4.08168068       4.54745542
N        4.59685410      -2.90310501       3.72533064
C        6.45631518      -4.15357500       4.95145804
C        7.17878606      -5.35426798       4.96088822
C        8.51749331      -5.39614351       5.36675811
C        9.16102552      -4.22917459       5.77039220
C        8.46873414      -3.02146695       5.75507723
C        7.13375164      -2.98804262       5.34075394
H        0.16820437      -2.73401697       0.02540729
H        1.60648706      -4.15022131       1.42939524
H        3.22210840      -0.65247570       3.33349071
H        1.80198026       0.78080280       1.91672861
H        2.07677712      -5.10223541       3.63136075
H        3.37124488      -7.58569384       3.95586365
H        3.29234304      -9.54621218       5.45768606
H        4.73817861      -7.09771531       8.70432433
H        4.79200404      -5.14256782       7.19102870
H        6.70313016      -6.26578235       4.61554302
H        9.05045275      -6.34170176       5.35371061
H       10.19923442      -4.25887659       6.08389186
H        8.95661125      -2.10159952       6.05844591
H        6.59173748      -2.04544209       5.32810854
C        3.97519666      -9.59417267       8.05428309
C        3.94476536     -10.55147415       8.78714312
Br       3.89556051     -12.09934968       9.97211579
