166
Properties=species:S:1:pos:R:3 pbc="F F F"
C        1.79141228       1.79141228      -1.79141228
C        2.54023957       2.81083483      -1.22019631
C        3.34568818       3.61765294      -2.02977983
C        3.40956538       3.42007320      -3.41557596
N        4.22282367       4.21709431      -4.25544407
C        4.95814211       5.34142088      -3.91126228
O        4.98411579       5.89400289      -2.81486224
C        5.81621142       5.86014901      -5.04052648
N        5.00549636       6.44282554      -6.09262407
N        4.54037899       5.62967941      -7.06805015
C        3.89882730       6.45974834      -7.92188732
C        3.94758358       7.78675100      -7.43832574
C        4.65027074       7.75754140      -6.25626932
C        5.00996907       8.82619691      -5.28915428
C        3.24613973       5.98592218      -9.18999720
F        1.91665101       6.27369131      -9.21805435
F        3.79426398       6.56633265     -10.29194852
F        3.34945760       4.64088007      -9.37319453
C        2.65092402       2.37563735      -3.99108766
C        2.66991947       2.08327434      -5.46860255
C        1.84403971       1.56943767      -3.16496405
H        2.51160562       2.99149906      -0.14878539
H        3.92005158       4.39461966      -1.53525617
H        4.20866078       3.99263783      -5.24753552
H        6.41032114       5.04597091      -5.47030000
H        6.51153351       6.61791630      -4.66773122
H        6.09655206       8.94544485      -5.23278102
H        4.63295189       8.58433569      -4.29037363
H        4.58567624       9.79246006      -5.57688877
H        1.99977877       1.25564211      -5.72546333
H        3.67855398       1.79871032      -5.78516780
H        2.33782889       2.95918341      -6.03506036
H        1.25451207       0.76453986      -3.59902558
C        3.36327918       8.93394090      -8.08341776
C        2.87392425       9.89471244      -8.62368232
Br       2.08267871      11.44819876      -9.49724443
C       -1.79141228      -1.79141228      -1.79141228
C       -2.57376821      -2.78239423      -1.21510828
C       -3.37915936      -3.58930042      -2.02466116
C       -3.40966457      -3.42019741      -3.41535257
N       -4.22201566      -4.21779669      -4.25554969
C       -4.98835114      -5.31878961      -3.90368453
O       -5.04919419      -5.84705617      -2.79673055
C       -5.83344497      -5.84348859      -5.03995335
N       -5.01349919      -6.46549959      -6.06194718
N       -4.51066127      -5.68341404      -7.04403325
C       -3.86927374      -6.54489992      -7.86628931
C       -3.95663175      -7.85990669      -7.35612188
C       -4.68320115      -7.79059395      -6.19028635
C       -5.08597440      -8.83046602      -5.20887983
C       -3.18008256      -6.11219962      -9.12977693
F       -1.85677732      -6.42836293      -9.12325643
F       -3.71726794      -6.70447669     -10.23080053
F       -3.25065141      -4.76952401      -9.34335677
C       -2.61687216      -2.40451171      -3.99626516
C       -2.59855621      -2.14357838      -5.47966178
C       -1.81040661      -1.59789898      -3.17013584
H       -2.57152474      -2.94059363      -0.13977170
H       -3.98031799      -4.34324520      -1.52636423
H       -4.18220799      -4.01502198      -5.25160417
H       -6.40079437      -5.02641981      -5.49937787
H       -6.55253935      -6.57831362      -4.66632807
H       -6.17580976      -8.92563039      -5.17333779
H       -4.72491500      -8.57520532      -4.20754090
H       -4.67655886      -9.81137736      -5.46708885
H       -1.90556794      -1.33590392      -5.73941235
H       -3.59398286      -1.84475045      -5.82369880
H       -2.27350925      -3.03821931      -6.02034409
H       -1.19476121      -0.81505711      -3.60825919
C       -3.38365292      -9.03269010      -7.96429481
C       -2.90378315     -10.01489622      -8.47363965
Br      -2.12787431     -11.60304043      -9.29720716
C       -1.79141228       1.79141228       1.79141228
C       -1.43874857       2.01803697       3.11448518
C       -2.24841117       2.82456818       3.92014160
C       -3.41862466       3.40901408       3.41757581
N       -4.25037310       4.23548925       4.20949970
C       -4.14269011       4.50191691       5.56621825
O       -3.33425647       4.00990137       6.34882308
C       -5.12931642       5.53806369       6.04950680
N       -6.48448482       5.02135147       6.03510968
N       -7.20324443       5.13926243       4.89560169
C       -8.42198741       4.64563628       5.21283927
C       -8.42926568       4.19211838       6.55127626
C       -7.17407351       4.42820857       7.06179937
C       -6.57714781       4.15400301       8.39416944
C       -9.56931592       4.60994430       4.24279889
F      -10.02553273       3.34456513       4.03829881
F      -10.62979931       5.34077960       4.68196624
F       -9.24603912       5.10213604       3.01535703
C       -3.76900890       3.18122759       2.06741254
C       -5.00078153       3.78029414       1.44072069
C       -2.94494799       2.36754547       1.26594796
H       -0.53844808       1.57799843       3.53544355
H       -1.92517121       2.98020367       4.94455253
H       -5.07447927       4.62039904       3.75395582
H       -5.08960835       6.42692912       5.41005459
H       -4.87945414       5.84989184       7.06783506
H       -6.29610501       5.08823925       8.89043367
H       -5.68396167       3.52909793       8.29460161
H       -7.27624984       3.62803126       9.05074397
H       -5.11537025       3.46875351       0.39676045
H       -4.93761900       4.87319189       1.45162122
H       -5.89801394       3.45631902       1.97773970
H       -3.20762956       2.18432810       0.22611985
C       -9.55403473       3.59928082       7.22732228
C      -10.49602881       3.10277937       7.79351083
Br     -12.01915356       2.29997852       8.70898982
C        1.79141228      -1.79141228       1.79141228
C        1.59721232      -1.80851136       3.16554704
C        2.40670451      -2.61557226       3.97084418
C        3.41962911      -3.40929763       3.41628781
N        4.24659797      -4.24061228       4.20815180
C        4.29316117      -4.32611593       5.59154818
O        3.66305818      -3.63901453       6.39090820
C        5.20551558      -5.42151394       6.08985739
N        6.59805907      -5.09909116       5.84379574
N        7.13613693      -5.44866592       4.65330570
C        8.43679013      -5.09084313       4.75282970
C        8.67985395      -4.48606125       6.00674513
C        7.48651070      -4.48685847       6.69071228
C        7.11310494      -3.97709625       8.03511907
C        9.43772154      -5.32732966       3.65700790
F       10.00965305      -4.16917069       3.22957293
F       10.45315869      -6.13774411       4.06164234
F        8.89432665      -5.91398389       2.55522166
C        3.60804647      -3.39397921       2.01562335
C        4.66291240      -4.22525807       1.33362590
C        2.78581595      -2.57742945       1.21519602
H        0.82143557      -1.20321141       3.62724309
H        2.20935149      -2.60249002       5.03808590
H        4.94931770      -4.78547082       3.71404562
H        4.97353747      -6.36664892       5.58640567
H        5.06086514      -5.57274222       7.16357368
H        6.79260531      -4.79854267       8.68362996
H        6.29569018      -3.25306113       7.95890991
H        7.95262883      -3.47638863       8.52600761
H        4.67100297      -4.05899888       0.25088237
H        4.47184703      -5.29026563       1.50031944
H        5.65695787      -3.96439535       1.71071943
H        2.92480621      -2.55699930       0.13627200
C        9.94865415      -3.97507923       6.45690446
C       11.01127432      -3.54713179       6.83391290
Br      12.72944126      -2.85517697       7.44350367
C       -0.00445707       0.01189536      -1.78238275
H       -0.66409135       0.67374010      -2.43557963
H        0.65740317      -0.63156657      -2.45157240
C       -0.90989263      -0.90692880      -0.91072765
C        0.90977584       0.90977584      -0.90977584
C       -0.00465871       1.77757030       0.00794375
H       -0.66225468       2.44313916      -0.64384735
H        0.64322798       2.43503045       0.67728295
C       -1.78241447       0.00034974      -0.00472694
H       -2.45427497      -0.65498947       0.64260836
H       -2.43311707       0.67328779      -0.65473579
C       -0.91132561       0.90220522       0.91563759
C       -0.01476271      -0.02253852       1.78660255
H       -0.67934791      -0.69751639       2.42135241
H        0.63392994       0.61504881       2.47327442
C        0.01484550      -1.77751727      -0.01636693
H        0.67870853      -2.42144646      -0.68295456
H       -0.62264859      -2.45592969       0.64226336
C        1.78714474       0.01002794       0.00389507
H        2.44202412       0.67113390       0.66197326
H        2.45385902      -0.65136977      -0.64189061
C        0.91606151      -0.90478549       0.90901405
