137
Properties=species:S:1:pos:R:3 pbc="F F F"
C        0.00000000       0.00000000       0.00000000
C        0.88150825       0.88150825      -0.88150825
C        1.63033555       1.90093081      -0.31029229
C        2.43578416       2.70774891      -1.11987580
C        2.49966136       2.51016918      -2.50567194
N        3.31291964       3.30719029      -3.34554004
C        4.04823809       4.43151686      -3.00135826
O        4.07421177       4.98409886      -1.90495822
C        4.90630739       4.95024499      -4.13062246
N        4.09559233       5.53292152      -5.18272004
N        3.63047497       4.71977539      -6.15814613
C        2.98892328       5.54984432      -7.01198330
C        3.03767956       6.87684698      -6.52842171
Br       2.27692246       8.37047402      -7.36832354
C        3.74036671       6.84763737      -5.34636529
C        4.10006505       7.91629288      -4.37925025
C        2.33623570       5.07601816      -8.28009318
F        1.00674699       5.36378728      -8.30815033
F        2.88435995       5.65642863      -9.38204450
F        2.43955357       3.73097605      -8.46329050
C        1.74101999       1.46573333      -3.08118363
C        1.76001545       1.17337032      -4.55869853
C        0.93413568       0.65953364      -2.25506002
H        1.60170159       2.08159504       0.76111864
H        3.01014755       3.48471564      -0.62535215
H        3.29875676       3.08273380      -4.33763150
H        5.50041712       4.13606689      -4.56039598
H        5.60162949       5.70801228      -3.75782720
H        5.18664804       8.03554083      -4.32287700
H        3.72304786       7.67443167      -3.38046961
H        3.67577221       8.88255603      -4.66698475
H        1.08987475       0.34573809      -4.81555930
H        2.76864996       0.88880629      -4.87526378
H        1.42792487       2.04927938      -5.12515633
H        0.34460805      -0.14536416      -2.68912155
C       -0.88150825      -0.88150825      -0.88150825
C       -1.10066427      -2.20713722      -0.53375716
C       -1.90721336      -3.01277972      -1.34341579
C       -2.49911491      -2.50762885      -2.50875871
N       -3.32576741      -3.29952996      -3.34035260
C       -3.58567094      -4.65789164      -3.23755062
O       -3.08656886      -5.44187920      -2.43482079
C       -4.62405662      -5.14141156      -4.22170666
N       -4.11347630      -5.11867444      -5.57908315
N       -4.23966865      -3.97651764      -6.29221019
C       -3.75008833      -4.28611892      -7.51454365
C       -3.29065583      -5.62246969      -7.52982273
Br      -2.52143304      -6.49268866      -9.00159832
C       -3.51885879      -6.13962366      -6.27588693
C       -3.23606130      -7.47339790      -5.68614899
C       -3.72384233      -3.31083259      -8.65767212
F       -2.46143764      -3.09865018      -9.11859678
F       -4.45744909      -3.74853878      -9.71684520
F       -4.22004145      -2.08705384      -8.32672483
C       -2.27890749      -1.15491500      -2.85411447
C       -2.88625693      -0.52543195      -4.08039541
C       -1.46512461      -0.35349637      -2.03010838
H       -0.65473687      -2.63012667       0.36268555
H       -2.05684219      -4.03930441      -1.02406874
H       -3.71638048      -2.84204834      -4.16069324
H       -5.51557249      -4.50612197      -4.17518553
H       -4.93023005      -6.16222533      -3.97501359
H       -4.16681430      -7.97507892      -5.40317264
H       -2.60761923      -7.37501349      -4.79531643
H       -2.71030318      -8.12449723      -6.39051259
H       -2.57988041       0.52041003      -4.19170176
H       -3.97880210      -0.54149855      -4.01241938
H       -2.56390908      -1.05699936      -4.98145214
H       -1.28771237       0.68829899      -2.28895206
C       -0.88150825       0.88150825       0.88150825
C       -1.11851863       2.20094119       0.52209882
C       -1.92502507       3.00661710       1.33176671
C       -2.49910391       2.50773115       2.50866742
N       -3.32533193       3.29968912       3.34062892
C       -3.60084056       4.65404229       3.22623035
O       -3.11869472       5.43463300       2.40994113
C       -4.63385924       5.13704446       4.21627114
N       -4.10871250       5.13425421       5.56826718
N       -4.21510492       3.99852626       6.29476529
C       -3.71594523       4.32636817       7.50843749
C       -3.27071273       5.66759843       7.50463708
Br      -2.49530269       6.56162817       8.95878916
C       -3.51771249       6.16884877       6.24780812
C       -3.25547728       7.49915285       5.64097805
C       -3.66714777       3.36371127       8.66148800
F       -2.39773093       3.16986324       9.11109043
F       -4.39413676       3.80493722       9.72375910
F       -4.15369254       2.13127052       8.34885707
C       -2.26077760       1.16120189       2.86595747
C       -2.84832561       0.53848673       4.10527195
C       -1.44723542       0.35967238       2.04182154
H       -0.68666869       2.61900791      -0.38349860
H       -2.08901238       4.02802046       1.00318250
H       -3.70231074       2.84690528       4.16990604
H       -5.51896410       4.49188354       4.18603235
H       -4.95354250       6.15185702       3.96206945
H       -4.19449474       7.98788585       5.36268527
H       -2.63549103       7.39789860       4.74455951
H       -2.72928837       8.16329089       6.33273373
H       -2.52960564      -0.50279877       4.22436526
H       -3.94163904       0.54224852       4.04883247
H       -2.52216004       1.08305757       4.99714297
H       -1.25594534      -0.67735344       2.30977353
C        0.88150825      -0.88150825       0.88150825
C        1.33331542      -0.40428598       2.10395724
C        2.14162820      -1.21296312       2.90881756
C        2.51125352      -2.50200354       2.50224542
N        3.32109463      -3.34295302       3.30160232
C        3.95980629      -3.02934300       4.49196392
O        3.99187761      -1.93101333       5.04037791
C        4.63140662      -4.21761636       5.13815186
N        5.78823666      -4.64707319       4.37592403
N        5.60125914      -5.53448035       3.37265698
C        6.84711827      -5.79103572       2.91259690
C        7.79582789      -5.02267883       3.62444153
Br       9.64772751      -5.03579069       3.33220182
C        7.09907943      -4.28348170       4.55180824
C        7.54136938      -3.29023008       5.56400872
C        7.12605962      -6.76432638       1.80196104
F        7.75534720      -6.17251772       0.75081968
F        7.92598131      -7.78659498       2.21025679
F        5.99835273      -7.33708843       1.29837896
C        2.04207289      -2.98591375       1.25995032
C        2.37845130      -4.36299101       0.75064198
C        1.22801683      -2.16205968       0.45865284
H        1.06615805       0.59164286       2.44766281
H        2.46108551      -0.79910593       3.86002390
H        3.52983900      -4.26450422       2.92477884
H        3.93082812      -5.05710127       5.20895059
H        4.94988551      -3.96407526       6.15350820
H        7.32269994      -3.64691132       6.57545460
H        7.03116733      -2.33359654       5.41318527
H        8.61745803      -3.10316039       5.50469457
H        1.94527004      -4.54486464      -0.23896254
H        1.97968001      -5.12493777       1.42810225
H        3.46283168      -4.48119859       0.65833031
H        0.86396844      -2.52476703      -0.50037003
