129
Properties=species:S:1:pos:R:3 pbc="F F F"
C        0.00000000       0.00000000       0.00000000
C        0.88215674       0.88215674      -0.88215674
C        0.58521322       2.24019205      -1.01616657
C        1.39172138       3.04758316      -1.81779221
C        2.48080855       2.47791983      -2.47313854
O        3.27969896       3.32088919      -3.26434939
C        4.39414322       2.83958353      -3.94264590
O        5.11086799       3.59602359      -4.59466241
C        4.68441916       1.39187730      -3.85037805
C        3.91786439       0.59410798      -3.08592341
C        2.78137691       1.12556705      -2.35319172
C        1.97503321       0.31943409      -1.54664732
C        5.81641605       0.73177054      -4.58869806
O        5.96258412      -0.48629889      -4.51433406
N        6.63089793       1.58554151      -5.30336304
C        7.74138491       1.24845650      -6.10722064
C        8.13476310      -0.06120854      -6.38727811
C        9.24757334      -0.31322938      -7.19774785
C        9.98353370       0.74426293      -7.73449903
C        9.59717068       2.05883190      -7.46236428
Cl      10.45202368       3.42830049      -8.08005034
C        8.47760329       2.30562322      -6.65694751
H       -0.26800264       2.67486664      -0.50112620
H        1.17232115       4.10579419      -1.92872443
H        4.11408528      -0.47200475      -3.00028301
H        2.19149361      -0.74048870      -1.43528040
H        6.41672288       2.58398749      -5.24376077
H        7.59230941      -0.91858074      -6.00023139
H        9.52695814      -1.34477195      -7.40117362
H        8.19022099       3.33516138      -6.45394935
C       11.12068342       0.41601770      -8.55470972
C       12.07304632       0.14111232      -9.24163618
Br      13.61293657      -0.30338642     -10.35233815
C       -0.88215674      -0.88215674      -0.88215674
C       -0.69404584      -2.26599484      -0.88153117
C       -1.50101874      -3.07295762      -1.68312039
C       -2.48116889      -2.47727658      -2.47342146
O       -3.28448191      -3.31927652      -3.26117911
C       -4.29562857      -2.81130861      -4.06943547
O       -5.02093513      -3.56187793      -4.71874094
C       -4.46604331      -1.34256075      -4.11807044
C       -3.69662221      -0.54518926      -3.35608431
C       -2.67225224      -1.10000940      -2.48787406
C       -1.86594272      -0.29385761      -1.68131429
C       -5.47438447      -0.66082453      -5.00167565
O       -5.52012315       0.56686547      -5.03736160
N       -6.30020411      -1.50569170      -5.71390668
C       -7.30990422      -1.15211811      -6.63503971
C       -7.56502640       0.15554954      -7.05135580
C       -8.58386363       0.42426121      -7.97248939
C       -9.36347511      -0.61377729      -8.48504325
C       -9.11511334      -1.92644198      -8.07681154
Cl     -10.03333382      -3.27183691      -8.65520379
C       -8.08871159      -2.19093483      -7.16052759
H        0.07470104      -2.72099204      -0.26169920
H       -1.36582250      -4.15088424      -1.69013303
H       -3.80610445       0.53655335      -3.37281243
H       -1.99810605       0.78557264      -1.67375190
H       -6.17859435      -2.50910465      -5.55677214
H       -6.98297787       0.99730154      -6.68828373
H       -8.75592853       1.45329169      -8.28072296
H       -7.90849724      -3.21864795      -6.85218653
C      -10.39911685      -0.26827543      -9.42401856
C      -11.26646681       0.02108239     -10.21041039
Br     -12.66889834       0.48894950     -11.48193946
C       -0.88215674       0.88215674       0.88215674
C       -2.18036934       0.47023887       1.19096363
C       -2.98547055       1.27234602       1.99928018
C       -2.47496890       2.47513711       2.48176091
O       -3.30788368       3.25470343       3.30235044
C       -2.87515374       4.46250626       3.83871265
O       -3.59701122       5.11276615       4.59177662
C       -1.52119747       4.93296196       3.47251508
C       -0.72907396       4.17725798       2.69156383
C       -1.18673797       2.89894242       2.17445529
C       -0.38048451       2.09236714       1.36826297
C       -0.95810435       6.25141113       3.92736917
O        0.15115390       6.60670539       3.53506780
N       -1.76185091       6.96975018       4.78820140
C       -1.50814740       8.24048959       5.34842506
C       -0.40585751       9.03242588       5.02254927
C       -0.22660564      10.28509215       5.62039402
C       -1.14751279      10.75854697       6.55623590
C       -2.25542656       9.97500955       6.88793074
Cl      -3.44235964      10.47904422       8.03897065
C       -2.43443411       8.72516730       6.28057260
H       -2.56973205      -0.47006273       0.80832089
H       -3.99645946       0.96218873       2.24819158
H        0.27071793       4.50094210       2.41213937
H        0.63129535       2.40135429       1.11622637
H       -2.64527151       6.53450576       5.06469386
H        0.33527508       8.71337521       4.29585993
H        0.64033102      10.88083604       5.34285479
H       -3.30218156       8.12683646       6.55031369
C       -0.90078969      12.05237557       7.13824558
C       -0.69415910      13.13595702       7.62567869
Br      -0.36005491      14.88801658       8.41381680
C        0.88215674      -0.88215674       0.88215674
C        2.25001561      -0.61628777       0.97526846
C        3.05590983      -1.41806087       1.78312605
C        2.47587011      -2.47432474       2.48167208
O        3.31347225      -3.25623718       3.29522811
C        2.81663680      -4.32155657       4.03817929
O        3.55126151      -4.96927358       4.78101889
C        1.37918850      -4.64428109       3.90320492
C        0.58423917      -3.88664670       3.12700990
C        1.11661548      -2.75306069       2.39045953
C        0.31040867      -1.94648341       1.58422254
C        0.72988813      -5.81046149       4.59653502
O       -0.45669800      -6.05621966       4.39109762
N        1.55155828      -6.52339988       5.44484432
C        1.22654085      -7.67205984       6.19846136
C        0.00377064      -8.34030962       6.11675241
C       -0.24076183      -9.47680759       6.89604605
C        0.73550738      -9.95583756       7.77095072
C        1.96359717      -9.29591777       7.85885192
Cl       3.22706329      -9.81545661       8.91785461
C        2.20626233      -8.16329824       7.07061343
H        2.69316081       0.21013328       0.42496268
H        4.12101248      -1.22046069       1.86536659
H       -0.47560167      -4.10270726       3.01525795
H       -0.75575635      -2.14319792       1.49884374
H        2.50984109      -6.18217798       5.55245207
H       -0.78571509      -8.01259900       5.44707616
H       -1.20210519      -9.97825125       6.80721375
H        3.16765379      -7.66034968       7.15132825
C        0.41755840     -11.12555707       8.54829537
C        0.15127613     -12.10519717       9.19932152
Br      -0.27927977     -13.68919234      10.25197573
