121
Properties=species:S:1:pos:R:3 pbc="F F F"
C        0.00000000       0.00000000       0.00000000
C        0.88215674       0.88215674      -0.88215674
C        0.58521322       2.24019205      -1.01616657
C        1.39172138       3.04758316      -1.81779221
C        2.48080855       2.47791983      -2.47313854
O        3.27969896       3.32088919      -3.26434939
C        4.39414322       2.83958353      -3.94264590
O        5.11086799       3.59602359      -4.59466241
C        4.68441916       1.39187730      -3.85037805
C        3.91786439       0.59410798      -3.08592341
C        2.78137691       1.12556705      -2.35319172
C        1.97503321       0.31943409      -1.54664732
C        5.81641605       0.73177054      -4.58869806
O        5.96258412      -0.48629889      -4.51433406
N        6.63089793       1.58554151      -5.30336304
C        7.74138491       1.24845650      -6.10722064
C        8.13476310      -0.06120854      -6.38727811
C        9.24757334      -0.31322938      -7.19774785
C        9.98353370       0.74426293      -7.73449903
Br      11.48238417       0.31161056      -8.81559957
C        9.59717068       2.05883190      -7.46236428
Cl      10.45202368       3.42830049      -8.08005034
C        8.47760329       2.30562322      -6.65694751
H       -0.26800264       2.67486664      -0.50112620
H        1.17232115       4.10579419      -1.92872443
H        4.11408528      -0.47200475      -3.00028301
H        2.19149361      -0.74048870      -1.43528040
H        6.41672288       2.58398749      -5.24376077
H        7.59230941      -0.91858074      -6.00023139
H        9.52695814      -1.34477195      -7.40117362
H        8.19022099       3.33516138      -6.45394935
C       -0.88215674      -0.88215674      -0.88215674
C       -0.67020902      -2.26228256      -0.90908027
C       -1.47708756      -3.06933826      -1.71067094
C       -2.48110000      -2.47741146      -2.47335546
O       -3.28347217      -3.31966814      -3.26179723
C       -4.31727328      -2.81566236      -4.04343702
O       -5.04080914      -3.56753568      -4.69320918
C       -4.51383873      -1.34951318      -4.06332259
C       -3.74503057      -0.55202185      -3.30084335
C       -2.69614869      -1.10366814      -2.46031886
C       -1.88983206      -0.29752063      -1.65376193
C       -5.54915739      -0.67044210      -4.91728515
O       -5.61669691       0.55668833      -4.93061071
N       -6.37265350      -1.51726386      -5.62988513
C       -7.40432619      -1.16563211      -6.52710375
C       -7.68925048       0.14434369      -6.91592587
C       -8.72859294       0.41097880      -7.81447767
C       -9.49905442      -0.63159035      -8.33165089
Br     -10.89329015      -0.17894330      -9.53736086
C       -9.22094422      -1.94654088      -7.95088176
Cl     -10.12582441      -3.29767119      -8.53687891
C       -8.17419752      -2.20874189      -7.05723460
H        0.11704257      -2.71433871      -0.31069405
H       -1.32345215      -4.14444278      -1.73894484
H       -3.87344257       0.52775881      -3.29667978
H       -2.04045177       0.77913085      -1.62496439
H       -6.23100376      -2.52094883      -5.49251856
H       -7.11552959       0.98979614      -6.54822661
H       -8.92377819       1.44199518      -8.10157680
H       -7.97088613      -3.23830006      -6.77014553
C       -0.88215674       0.88215674       0.88215674
C       -2.16985805       0.45642841       1.21528538
C       -2.97487108       1.25858216       2.02364351
C       -2.47487550       2.47523425       2.48175717
O       -3.30720086       3.25463500       3.30310168
C       -2.88427300       4.47597171       3.81612794
O       -3.60466594       5.12669253       4.57019552
C       -1.54248629       4.96019125       3.42399697
C       -0.75072626       4.20463976       2.64252975
C       -1.19730275       2.91272831       2.15010463
C       -0.39104382       2.10615397       1.34391683
C       -0.99195430       6.29282464       3.85210571
O        0.10646321       6.65808095       3.43900155
N       -1.79367370       7.01199766       4.71413112
C       -1.55030000       8.29407441       5.25268765
C       -0.46415962       9.09673668       4.89993636
C       -0.29443329      10.36023202       5.47742649
C       -1.20872797      10.83399084       6.41957685
Br      -0.89717201      12.55457447       7.15784782
C       -2.30052918      10.03972967       6.77810801
Cl      -3.47819816      10.54338865       7.93878770
C       -2.47018583       8.77892511       6.19106307
H       -2.55108638      -0.49465007       0.85155389
H       -3.97770743       0.93778833       2.29134402
H        0.24029141       4.53836320       2.34429175
H        0.61255599       2.42574435       1.07309695
H       -2.66678881       6.56833596       5.00934637
H        0.27113788       8.77780746       4.16729048
H        0.55989014      10.96411331       5.17913663
H       -3.32539287       8.17233439       6.48160446
C        0.88215674      -0.88215674       0.88215674
C        2.24237583      -0.59155219       1.00764382
C        3.04814973      -1.39336597       1.81558106
C        2.47572613      -2.47444081       2.48169998
O        3.31268915      -3.25589632       3.29635207
C        2.82275123      -4.34528330       4.00833813
O        3.55548598      -4.99319757       4.75287043
C        1.39491819      -4.69324610       3.83851023
C        0.60034554      -3.93597046       3.06157977
C        1.12432696      -2.77777723       2.35803150
C        0.31811337      -1.97119950       1.55180176
C        0.75555023      -5.88544249       4.49589192
O       -0.42167491      -6.15017121       4.26212298
N        1.57453655      -6.59895330       5.34631263
C        1.25780042      -7.76850794       6.07075369
C        0.05039938      -8.45873268       5.95170060
C       -0.18662616      -9.61507052       6.70364744
C        0.78172488     -10.09227630       7.58829448
Br       0.37349770     -11.66202689       8.57406972
C        1.99448839      -9.41039774       7.71348073
Cl       3.24713854      -9.92615633       8.78707964
C        2.22989908      -8.25779526       6.95247967
H        2.67963975       0.25414750       0.48249795
H        4.10730106      -1.17669523       1.92284348
H       -0.45260275      -4.17040439       2.92456190
H       -0.74205632      -2.18694319       1.44139844
H        2.52355614      -6.24130595       5.47960905
H       -0.73223393      -8.13322713       5.27296686
H       -1.13588272     -10.13331078       6.58593175
H        3.17933218      -7.73788818       7.06211136
