149
Properties=species:S:1:pos:R:3 pbc="F F F"
C        0.00000000       0.00000000       0.00000000
C        0.88147957       0.88147957      -0.88147957
C        0.55041649       2.22152871      -1.06724503
C        1.35046290       3.02232948      -1.88420830
C        2.47485002       2.48194391      -2.52399650
C        2.81106271       1.13860768      -2.31793899
C        2.00983485       0.33853788      -1.49609957
C        3.26222662       3.37341262      -3.41903968
O        3.18706821       4.59167108      -3.26942640
C        4.10638208       2.74012350      -4.51670159
O        4.26209130       3.65942410      -5.60136226
C        3.19073022       3.72997095      -6.43212456
O        2.16556386       3.07293713      -6.32034144
C        3.41160582       4.79311417      -7.48415071
H        3.32246342       5.76187311      -6.97299195
C        2.37095246       4.75719275      -8.64160838
H        1.35356953       5.00293718      -8.32671516
C        3.01148326       5.77329645      -9.59728397
C        4.31355476       5.00114634      -9.70257994
H        5.09639186       5.43049713     -10.33167588
C        3.88782120       3.58857560     -10.09916782
H        3.89453623       3.42659484     -11.18078621
O        4.85066127       2.73683435      -9.47528863
C        5.35544583       3.36731704      -8.37241462
O        6.14288838       2.85762119      -7.59524120
C        4.74717839       4.74098345      -8.25609422
H        5.47528072       5.47583813      -7.90292196
C        2.50978208       3.43301877      -9.42692784
H        2.43172208       2.53732429      -8.80568076
Br       1.09513205       3.26635614     -10.75732248
H       -0.32646352       2.65206902      -0.59047734
H        1.08475694       4.06788403      -2.03327499
H        3.68930629       0.69242510      -2.77634143
H        2.27120814      -0.70609973      -1.34442269
H        3.67578348       1.79967925      -4.87695817
H        5.10217299       2.53194194      -4.11375411
H        3.13732850       6.76433190      -9.14882347
H        2.49425198       5.87573639     -10.55529039
C       -0.88147957      -0.88147957      -0.88147957
C       -1.07795112      -0.54307530      -2.21816381
C       -1.89491855      -1.34322549      -3.01885664
C       -2.52404002      -2.47512025      -2.48163015
C       -2.30722330      -2.81856463      -1.14182144
C       -1.48539216      -2.01719707      -0.34188307
C       -3.41974699      -3.26252407      -3.37240787
O       -3.27843950      -3.17863793      -4.59108827
C       -4.50791446      -4.11773041      -2.73756230
O       -5.59743877      -4.27453237      -3.65090652
C       -6.43545335      -3.20809806      -3.70927433
O       -6.32599596      -2.18644686      -3.04639961
C       -7.49285219      -3.42893678      -4.76708174
H       -6.98850161      -3.33033775      -5.73848911
C       -8.65666946      -2.39598513      -4.71709900
H       -8.34985579      -1.37505506      -4.95831103
C       -9.61474303      -3.03614341      -5.73117724
C       -9.70677310      -4.34376251      -4.96674544
H      -10.33360622      -5.12786734      -5.39709131
C      -10.09699257      -3.92960196      -3.54897010
H      -11.17748405      -3.94429303      -3.38014021
O       -9.46153012      -4.89383043      -2.70742370
C       -8.35952883      -5.38749332      -3.34815535
O       -7.57409284      -6.17316575      -2.84849218
C       -8.25591078      -4.76974245      -4.71860283
H       -7.90282613      -5.49086076      -5.46035392
C       -9.43257109      -2.54829618      -3.38886142
H       -8.80609767      -2.47196444      -2.49666502
Br     -10.77086445      -1.14330721      -3.20463901
H       -0.60955969       0.33957539      -2.64609855
H       -2.05238554      -1.07181846      -4.06171197
H       -2.75714113      -3.70256073      -0.69837096
H       -1.32534861      -2.28424902       0.70006652
H       -4.86486584      -3.69546043      -1.79209464
H       -4.09729567      -5.11222178      -2.53835160
H       -9.17185991      -3.15278361      -6.72584035
H      -10.57666686      -2.52442958      -5.82418232
C       -0.88147957       0.88147957       0.88147957
C       -0.31470811       1.94545101       1.57903110
C       -1.12022006       2.74205072       2.39472991
C       -2.48953052       2.46929964       2.52196027
C       -3.05501606       1.40901373       1.80357957
C       -2.24662145       0.61387634       0.98397452
C       -3.28743161       3.32513054       3.44211678
O       -2.87137506       4.44564091       3.73114973
C       -4.57724953       2.76233627       4.02362137
O       -4.85663269       3.38621062       5.28003435
C       -4.14152572       2.88963577       6.32166424
O       -3.33145980       1.97642806       6.25095457
C       -4.43418831       3.67419684       7.58048555
H       -3.94561560       4.65124177       7.46047111
C       -3.88215970       3.01112874       8.87646515
H       -2.79076157       2.97200251       8.92045779
C       -4.53617476       3.91656445       9.92932447
C       -5.94536287       3.62276368       9.44915449
H       -6.76322428       4.12136548       9.97397511
C       -6.03538879       2.09772681       9.44244903
H       -6.44231632       1.68822717      10.37137379
O       -6.91167283       1.79633944       8.35477199
C       -6.84882260       2.80836802       7.43798687
O       -7.43065975       2.79724240       6.36784861
C       -5.92059114       3.88417457       7.93949035
H       -6.28592218       4.88262129       7.68549734
C       -4.59437091       1.66013407       9.11522371
H       -4.53467843       0.97045300       8.26959570
Br      -3.79157245       0.71088254      10.61635568
H        0.74799684       2.16103282       1.50304687
H       -0.67264706       3.56872045       2.94454846
H       -4.11665080       1.18413457       1.85728746
H       -2.68915437      -0.21276789       0.43314463
H       -4.53535385       1.67435739       4.14270967
H       -5.40007038       3.00384335       3.34395531
H       -4.25881526       4.97037048       9.82129813
H       -4.36023004       3.60300006      10.96204866
C        0.88147957      -0.88147957       0.88147957
C        1.59505884      -0.31123756       1.93289383
C        2.41066839      -1.11693779       2.72939450
C        2.52175675      -2.49005010       2.46898357
C        1.78739946      -3.05876388       1.42144603
C        0.96792679      -2.25012823       0.62641728
C        3.44247512      -3.28859388       3.32360993
O        3.74665742      -2.86445180       4.43705647
C        4.00570062      -4.58956475       2.76794181
O        5.26543046      -4.87524590       3.38220129
C        6.30905402      -4.17539423       2.86837748
O        6.23725104      -3.37366222       1.94792918
C        7.57265315      -4.47280157       3.64341599
H        7.46711808      -3.97350617       4.61670423
C        8.86735353      -3.94016418       2.96223588
H        8.92165737      -2.84969146       2.91187305
C        9.92266412      -4.59566372       3.86373584
C        9.42581161      -6.00284064       3.58862878
H        9.94749881      -6.82093071       4.09013534
C        9.40312030      -6.10774694       2.06469739
H       10.32390863      -6.52785065       1.65015800
O        8.30397060      -6.97612933       1.78268432
C        7.39791381      -6.89428094       2.80298274
O        6.32206343      -7.46557225       2.80811509
C        7.91912599      -5.96055636       3.86457371
H        7.67146339      -6.31354499       4.86903244
C        9.08572451      -4.66791958       1.61608460
H        8.23393356      -4.60662144       0.93417213
Br      10.58518225      -3.88937499       0.64425343
H        1.53163865       0.75423084       2.13867503
H        2.97300990      -0.66674670       3.54615938
H        1.82846388      -4.12303272       1.20657622
H        0.40462372      -2.69526948      -0.19036210
H        4.11441308      -4.55952201       1.67848581
H        3.32042329      -5.40320603       3.02423973
H        9.82780493      -4.30692697       4.91575197
H       10.95390796      -4.43303899       3.53833181
