170
Properties=species:S:1:pos:R:3 pbc="F F F"
C        1.79138360       1.79138360      -1.79138360
C        1.46032051       3.13143274      -1.97714905
C        2.26036693       3.93223350      -2.79411232
C        3.38475404       3.39184794      -3.43390052
C        3.72096673       2.04851170      -3.22784301
C        2.91973887       1.24844191      -2.40600360
C        4.17213065       4.28331665      -4.32894371
O        4.09697224       5.50157511      -4.17933042
C        5.01628611       3.65002752      -5.42660562
O        5.17199532       4.56932812      -6.51126629
C        4.10063425       4.63987498      -7.34202858
O        3.07546789       3.98284115      -7.23024546
C        4.32150985       5.70301819      -8.39405474
H        4.23236744       6.67177714      -7.88289597
C        3.28085648       5.66709678      -9.55151240
H        2.26347356       5.91284121      -9.23661919
C        3.92138728       6.68320047     -10.50718799
C        5.22345878       5.91105036     -10.61248397
H        6.00629588       6.34040116     -11.24157990
C        4.79772523       4.49847962     -11.00907185
H        4.80444025       4.33649887     -12.09069023
O        5.76056530       3.64673838     -10.38519265
C        6.26534986       4.27722107      -9.28231865
O        7.05279240       3.76752522      -8.50514522
C        5.65708241       5.65088747      -9.16599825
H        6.38518475       6.38574216      -8.81282598
C        3.41968610       4.34292279     -10.33683186
H        3.34162610       3.44722831      -9.71558479
Br       2.00503608       4.17626016     -11.66722650
H        0.58344051       3.56197305      -1.50038137
H        1.99466097       4.97778806      -2.94317902
H        4.59921032       1.60232913      -3.68624545
H        3.18111217       0.20380429      -2.25432672
H        4.58568750       2.70958328      -5.78686220
H        6.01207702       3.44184596      -5.02365814
H        4.04723252       7.67423593     -10.05872750
H        3.40415600       6.78564042     -11.46519442
C       -1.79138360      -1.79138360      -1.79138360
C       -3.10042339      -1.40278269      -2.06569622
C       -3.90877400      -2.21683783      -2.86110093
C       -3.41300320      -3.42400762      -3.37349168
C       -2.09048131      -3.79884132      -3.10799881
C       -1.28088298      -2.97993326      -2.31336814
C       -4.33675797      -4.27129099      -4.17634205
O       -5.31590364      -3.75245891      -4.70951521
C       -4.05297662      -5.76395797      -4.27598466
O       -5.27220031      -6.47617436      -4.50421506
C       -6.02381210      -6.66852897      -3.39019674
O       -5.72243062      -6.30327535      -2.26284853
C       -7.33004686      -7.34046080      -3.74807512
H       -7.93951189      -6.58464871      -4.26287994
C       -8.13116206      -7.85292850      -2.51537511
H       -8.49484664      -7.05438348      -1.86370383
C       -9.23051304      -8.64792461      -3.23333810
C       -8.24510639      -9.55429868      -3.94758804
H       -8.66087884     -10.31194118      -4.61545692
C       -7.36203318     -10.11104756      -2.83219596
H       -7.71416602     -11.07170013      -2.44576320
O       -6.07902300     -10.27366831      -3.43980502
C       -5.96068331      -9.38901330      -4.47519295
O       -4.94758457      -9.24239200      -5.13548628
C       -7.24271037      -8.61070908      -4.62054868
H       -7.48627485      -8.42722266      -5.67025537
C       -7.33237016      -8.96660435      -1.80046625
H       -6.32022729      -8.67247442      -1.51173749
Br      -8.21208586      -9.49350885      -0.14292803
H       -3.50478240      -0.47732329      -1.66368924
H       -4.93418410      -1.91375384      -3.06769010
H       -1.66423561      -4.71407776      -3.50947152
H       -0.25633725      -3.27858705      -2.10431888
H       -3.55203159      -6.14884997      -3.38125142
H       -3.40180413      -5.93777941      -5.13799758
H       -9.82380801      -8.03576255      -3.92062538
H       -9.90339657      -9.18915113      -2.56244313
C       -1.79138360       1.79138360       1.79138360
C       -2.14281061       3.06766395       1.35842774
C       -2.93798980       3.87685015       2.17187280
C       -3.37308638       3.41525738       3.42215875
C       -3.03044608       2.12449651       3.84237885
C       -2.23619606       1.31380662       3.02418169
C       -4.17956245       4.34081859       4.26400996
O       -4.77982472       5.27042437       3.72762867
C       -4.19994187       4.12221224       5.77076514
O       -4.45259824       5.36177967       6.43821182
C       -3.36710385       6.16995907       6.54547488
O       -2.24426745       5.90211414       6.14217291
C       -3.75494454       7.48876993       7.17486831
H       -4.33025726       8.03930894       6.41747434
C       -2.53915780       8.36639123       7.59391663
H       -1.94090829       8.72120916       6.75081650
C       -3.27134676       9.46852255       8.37190644
C       -3.89854515       8.49547440       9.35297356
H       -4.55079531       8.91591235      10.12156929
C       -2.72002105       7.68921799       9.89603767
H       -2.30821681       8.10210653      10.82130601
O       -3.25989747       6.38950751      10.14309134
C       -4.32677835       6.18477754       9.31333368
O       -4.94536895       5.13780451       9.24228938
C       -4.56547974       7.42178395       8.48670444
H       -5.63240284       7.60999550       8.34135455
C       -1.73958972       7.65229451       8.70755653
H       -1.41766085       6.64138225       8.44539611
Br      -0.10282949       8.62779099       9.11790226
H       -1.80120136       3.44617717       0.39841639
H       -3.20494369       4.87702591       1.83365845
H       -3.37096210       1.72369244       4.79313035
H       -1.96702279       0.31439737       3.35782302
H       -3.26688055       3.67961016       6.13564227
H       -5.02241251       3.44232545       6.01284316
H       -4.01169551      10.00194478       7.76655566
H       -2.60901770      10.19468489       8.85128825
C        1.79138360      -1.79138360       1.79138360
C        2.41374019      -1.24430512       2.91085699
C        3.22981443      -2.04894864       3.70794968
C        3.43269722      -3.39704910       3.38075618
C        2.78933082      -3.94394290       2.26404772
C        1.96915910      -3.13666464       1.46836063
C        4.35002190      -4.19220799       4.24216112
O        4.56921233      -3.81634412       5.39232132
C        5.01543987      -5.42725608       3.65022330
O        6.25449348      -5.67920646       4.31888978
C        7.28274978      -4.89610250       3.90368552
O        7.21509430      -4.04833076       3.02512945
C        8.51767461      -5.16868196       4.73222622
H        8.33167392      -4.73197310       5.72339354
C        9.81475713      -4.52924409       4.15546444
H        9.80956489      -3.43633274       4.16703632
C       10.85559968      -5.17722094       5.07895513
C       10.45513785      -6.59116539       4.70068987
H       10.99477434      -7.40719694       5.18630566
C       10.52050443      -6.61027025       3.17450203
H       11.48467641      -6.95594145       2.79101149
O        9.48931359      -7.51909850       2.78408423
C        8.52646948      -7.54431404       3.75410605
O        7.48614958      -8.17204619       3.66726708
C        8.93582262      -6.64580183       4.89234369
H        8.65494200      -7.06818208       5.86062881
C       10.14631278      -5.16642511       2.78670286
H        9.33035201      -5.11236384       2.06172336
Br      11.64917664      -4.25427914       1.94506696
H        2.27882208      -0.19723006       3.16974278
H        3.72085691      -1.61634232       4.57842882
H        2.90238274      -4.99050822       1.99489393
H        1.47687150      -3.56428755       0.59808413
H        5.18074504      -5.32947254       2.57191541
H        4.36476330      -6.28986219       3.82295563
H       10.68798410      -4.95432846       6.13788340
H       11.89193757      -4.94107984       4.82197342
C       -0.00445707       0.01189536      -1.78238275
H       -0.66409135       0.67374010      -2.43557963
H        0.65740317      -0.63156657      -2.45157240
C       -0.90989263      -0.90692880      -0.91072765
C        0.90977584       0.90977584      -0.90977584
C       -0.00465871       1.77757030       0.00794375
H       -0.66225468       2.44313916      -0.64384735
H        0.64322798       2.43503045       0.67728295
C       -1.78241447       0.00034974      -0.00472694
H       -2.45427497      -0.65498947       0.64260836
H       -2.43311707       0.67328779      -0.65473579
C       -0.91132561       0.90220522       0.91563759
C       -0.01476271      -0.02253852       1.78660255
H       -0.67934791      -0.69751639       2.42135241
H        0.63392994       0.61504881       2.47327442
C        0.01484550      -1.77751727      -0.01636693
H        0.67870853      -2.42144646      -0.68295456
H       -0.62264859      -2.45592969       0.64226336
C        1.78714474       0.01002794       0.00389507
H        2.44202412       0.67113390       0.66197326
H        2.45385902      -0.65136977      -0.64189061
C        0.91606151      -0.90478549       0.90901405
