141
Properties=species:S:1:pos:R:3 pbc="F F F"
C        0.00000000       0.00000000       0.00000000
O        6.21393891       1.65893753      -3.94871905
C        5.50377652       2.63309661      -3.71599882
C        4.08127790       2.76347068      -4.25166823
O        3.18739459       3.34963237      -3.30976403
C        2.48681523       2.47894192      -2.51893285
C        2.92282615       1.20891507      -2.13480431
C        2.11675414       0.40812390      -1.31853327
C        0.88141317       0.88141317      -0.88141317
C        0.44869112       2.15477003      -1.24207501
C        1.25759180       2.95430561      -2.05345027
N        5.91164997       3.73776344      -2.97992435
C        7.13306854       4.00875018      -2.38728340
S        7.21404711       5.44997777      -1.54296513
N        8.09258081       3.04373063      -2.55137953
C        9.43502252       2.96602588      -2.15979371
C       10.23925079       4.05651998      -1.87251455
C       11.55318110       3.84200102      -1.45623600
C       12.03615768       2.54378621      -1.34524931
Br      13.80895059       2.28998131      -0.73232843
C       11.19030709       1.49317555      -1.69204156
C       11.62158553       0.05823590      -1.60268550
N        9.90986490       1.70135987      -2.11059022
H        3.72046045       1.79717998      -4.62429605
H        4.12588204       3.43658200      -5.11578400
H        3.88535475       0.81065604      -2.44107233
H        2.46470652      -0.58062395      -1.02926024
H       -0.51150059       2.53275995      -0.90072132
H        0.91755703       3.94837959      -2.33442785
H        5.20306814       4.44222415      -2.80196439
H        7.76112019       2.14215070      -2.89305043
H        9.89997096       5.07642109      -1.98743079
H       12.18328900       4.69544249      -1.22101186
H       10.83728153      -0.60672201      -1.97884512
H       11.81980893      -0.21509181      -0.56122180
H       12.51837278      -0.11636480      -2.20497687
O       -3.25632240      -2.08355657      -6.48171653
C       -3.75179340      -2.61114523      -5.48993332
C       -2.96887734      -3.55015477      -4.57738469
O       -3.27977622      -3.36802269      -3.19899208
C       -2.47049990      -2.50864391      -2.50554620
C       -1.78996771      -1.42038949      -3.05618832
C       -0.99131213      -0.60879547      -2.24330371
C       -0.88141317      -0.88141317      -0.88141317
C       -1.57358592      -1.95146772      -0.32048253
C       -2.37418834      -2.75760985      -1.13354950
N       -5.07550663      -2.45262706      -5.10120407
C       -6.09685760      -1.73381743      -5.69842709
S       -7.55906635      -1.76054471      -4.88737896
N       -5.75648617      -1.07816755      -6.85303725
C       -6.49635991      -0.30658413      -7.75789807
C       -7.87008837      -0.37844903      -7.91974793
C       -8.49319560       0.47348346      -8.83170598
C       -7.72889000       1.37104405      -9.56734724
Br      -8.61418776       2.54364623     -10.76071879
C       -6.34761992       1.36190353      -9.38980781
C       -5.44046191       2.29531811     -10.13736313
N       -5.73569215       0.52176944      -8.50789227
H       -1.89326520      -3.47201143      -4.77665985
H       -3.26396109      -4.57223056      -4.84205639
H       -1.86255812      -1.16543556      -4.10908945
H       -0.46277262       0.23321986      -2.68379005
H       -1.49679390      -2.16721260       0.74202581
H       -2.91360292      -3.59319479      -0.69356675
H       -5.33793484      -2.88701541      -4.22230644
H       -4.75740520      -0.99881685      -7.04009926
H       -8.48227932      -1.09339154      -7.38815199
H       -9.57188997       0.42581540      -8.95366878
H       -4.39130184       2.08618475      -9.90428755
H       -5.64502487       3.33278390      -9.85369795
H       -5.56749098       2.17845955     -11.21795342
O       -1.58925584       6.13630980       4.09602986
C       -2.36223766       5.20202526       4.28860903
C       -3.26360112       4.63844979       3.19436589
O       -3.37838137       3.21942251       3.24898711
C       -2.50152550       2.51197453       2.47118998
C       -1.22321868       2.93876114       2.10456570
C       -0.41442728       2.12377644       1.30520758
C       -0.88141317       0.88141317       0.88141317
C       -2.14617934       0.43912063       1.26023619
C       -2.95006537       1.25286795       2.06241436
N       -2.53843817       4.57553789       5.51536170
C       -1.94968054       4.83915555       6.74026603
S       -2.40246994       3.81896146       7.98555862
N       -1.05708057       5.87934709       6.75126332
C       -0.31005607       6.47613104       7.77465500
C       -0.62748280       6.41912118       9.12168134
C        0.22167040       7.02603523      10.04705329
C        1.36325474       7.68350647       9.60494147
Br       2.51624810       8.45455566      10.89295276
C        1.60136635       7.74282299       8.23406756
C        2.80812988       8.42830174       7.66233507
N        0.76634883       7.16070630       7.32745751
H       -2.93990592       4.99351786       2.20851270
H       -4.26575234       5.04962185       3.36287385
H       -0.81703693       3.89246340       2.42758281
H        0.57742865       2.46826625       1.02250521
H       -2.51525013      -0.53100746       0.93773802
H       -3.93780415       0.90577543       2.35678489
H       -3.15608363       3.77023926       5.52093380
H       -0.74955596       6.20969565       5.83706970
H       -1.52846695       5.94736154       9.48799434
H       -0.01997107       6.97456541      11.10520686
H        2.77746361       8.41896005       6.56790820
H        3.72202570       7.91289825       7.97506637
H        2.84896438       9.47411165       7.98183758
O        3.55046594      -6.38788494       1.88324461
C        3.46777736      -5.58053424       2.80456035
C        4.13010379      -4.20695425       2.75935875
O        3.32362844      -3.18500325       3.33815930
C        2.51796756      -2.49040405       2.47631840
C        1.98445930      -2.99414564       1.28794058
C        1.16874854      -2.18670161       0.48796115
C        0.88141317      -0.88141317       0.88141317
C        1.39166409      -0.37851546       2.07535660
C        2.20216574      -1.18842459       2.87475736
N        2.80407926      -5.82578784       3.99947066
C        2.13864886      -6.96109296       4.42936030
S        1.42556948      -6.84396024       5.93746029
N        2.13323686      -8.00885129       3.54560283
C        1.62538326      -9.31173627       3.62372258
C        1.37261524      -9.99243739       4.80323270
C        0.83015653     -11.27621017       4.74505142
C        0.56119390     -11.85383737       3.51016194
Br      -0.21832753     -13.57828509       3.47130277
C        0.88013550     -11.13393158       2.36145712
C        0.62448096     -11.67365774       0.98436823
N        1.42147025      -9.88412609       2.41621864
H        4.44184330      -3.96366519       1.73642799
H        5.04527529      -4.27381838       3.35915437
H        2.17159361      -4.01050734       0.95498218
H        0.76239357      -2.58821117      -0.43726193
H        1.16766883       0.63703514       2.39134700
H        2.60011336      -0.79356970       3.80668140
H        2.75098702      -5.04754102       4.64872866
H        2.41770913      -7.78646070       2.59215149
H        1.60807146      -9.58101956       5.77473182
H        0.62196254     -11.80868947       5.66909134
H        1.00261317     -10.98527690       0.22151457
H       -0.45048655     -11.79816190       0.81826358
H        1.13126727     -12.63310573       0.84261185
