170
Properties=species:S:1:pos:R:3 pbc="F F F"
O        7.12384294       2.56884156      -4.85862308
C        6.41368055       3.54300064      -4.62590284
C        4.99118192       3.67337470      -5.16157225
O        4.09729861       4.25953639      -4.21966806
C        3.39671925       3.38884595      -3.42883688
C        3.83273017       2.11881909      -3.04470833
C        3.02665816       1.31802793      -2.22843729
C        1.79131720       1.79131720      -1.79131720
C        1.35859514       3.06467405      -2.15197904
C        2.16749582       3.86420963      -2.96335430
N        6.82155399       4.64766747      -3.88982838
C        8.04297256       4.91865420      -3.29718743
S        8.12395114       6.35988180      -2.45286916
N        9.00248484       3.95363466      -3.46128356
C       10.34492655       3.87592990      -3.06969773
C       11.14915482       4.96642401      -2.78241857
C       12.46308512       4.75190504      -2.36614003
C       12.94606170       3.45369024      -2.25515333
C       12.10021111       2.40307958      -2.60194558
C       12.53148955       0.96813993      -2.51258953
N       10.81976892       2.61126389      -3.02049424
H        4.63036447       2.70708400      -5.53420007
H        5.03578606       4.34648603      -6.02568802
H        4.79525878       1.72056007      -3.35097636
H        3.37461054       0.32928008      -1.93916426
H        0.39840343       3.44266398      -1.81062534
H        1.82746106       4.85828361      -3.24433187
H        6.11297217       5.35212818      -3.71186842
H        8.67102421       3.05205472      -3.80295445
H       10.80987498       5.98632511      -2.89733482
H       13.09319303       5.60534652      -2.13091588
H       11.74718555       0.30318202      -2.88874915
H       12.72971296       0.69481221      -1.47112583
H       13.42827680       0.79353922      -3.11488089
C       14.29472689       3.26060630      -1.78886928
C       15.42423398       3.09889849      -1.39835640
Br      17.25055142       2.83743066      -0.76693009
O       -2.67269198      -4.66254103      -7.21607456
C       -3.62361874      -4.50299507      -6.45597021
C       -3.66864357      -5.10331181      -5.05417349
O       -4.25408181      -4.22657467      -4.09584658
C       -3.38750792      -3.42843110      -3.39846306
C       -2.15518637      -2.97080919      -3.87026203
C       -1.35481494      -2.15478928      -3.06351916
C       -1.79131720      -1.79131720      -1.79131720
C       -3.02809548      -2.22552384      -1.32162891
C       -3.82754422      -3.03648273      -2.13103281
N       -4.77517022      -3.79968111      -6.78419851
C       -5.12431938      -3.16861496      -7.96587985
S       -6.60199226      -2.38582384      -7.94888599
N       -4.19636928      -3.24956462      -8.97146915
C       -4.19432784      -2.79875164     -10.29747471
C       -5.33025970      -2.52608468     -11.04165302
C       -5.19144415      -2.04580979     -12.34387625
C       -3.92154867      -1.85760560     -12.87575100
C       -2.82108973      -2.19318185     -12.09096470
C       -1.41153890      -2.02273360     -12.57794650
N       -2.95495925      -2.67403375     -10.82253406
H       -2.67258712      -5.44795609      -4.75110534
H       -4.30607512      -5.99354281      -5.10834218
H       -1.78709037      -3.21846056      -4.86124427
H       -0.39538376      -1.80792340      -3.43974772
H       -3.37754037      -1.94186225      -0.33229014
H       -4.79298915      -3.37496928      -1.76211811
H       -5.45466224      -3.68286856      -6.03943796
H       -3.26749812      -3.56491839      -8.69361688
H       -6.32851071      -2.69992182     -10.66510239
H       -6.08091475      -1.82201109     -12.92652958
H       -0.69748664      -2.40198795     -11.83964212
H       -1.19129547      -0.96283561     -12.74151992
H       -1.25132859      -2.57846213     -13.50690620
C       -3.80776166      -1.32689763     -14.20954318
C       -3.71246504      -0.88242970     -15.32659413
Br      -3.55837847      -0.16376266     -17.13277103
O       -5.59675285       6.66115416       2.29340056
C       -5.10075227       6.17564379       3.30618797
C       -5.35297198       4.73452618       3.73863072
O       -4.19225953       4.10757905       4.27666448
C       -3.42914623       3.39056105       3.39469480
C       -3.32071950       3.64907029       2.02646780
C       -2.50393671       2.84544193       1.22374474
C       -1.79131720       1.79131720       1.79131720
C       -1.87698876       1.54008284       3.15817663
C       -2.68969032       2.34697166       3.95839777
N       -4.29174194       6.87594222       4.19136567
C       -3.88909683       8.20029706       4.16942029
S       -2.86731595       8.65764280       5.41174334
N       -4.36072370       8.94027841       3.11640093
C       -4.22683793      10.29130503       2.77241122
C       -3.92626554      11.30809925       3.66363261
C       -3.78369024      12.61103600       3.18640396
C       -3.95351474      12.86968457       1.83170596
C       -4.29876685      11.81053511       0.99593431
C       -4.50089938      11.99165598      -0.48033635
N       -4.45037163      10.53873872       1.46241670
H       -5.79596629       4.15835884       2.91732342
H       -6.10164148       4.76758443       4.53873420
H       -3.84695180       4.47032931       1.54951409
H       -2.43053537       3.05352212       0.15899739
H       -1.32003628       0.72275772       3.60889875
H       -2.75561647       2.14876522       5.02569486
H       -3.88941688       6.33648602       4.95106586
H       -4.76912141       8.40864285       2.34826913
H       -3.82687634      11.13985583       4.72680275
H       -3.53846484      13.40902888       3.88196170
H       -4.82818442      11.05572941      -0.94479713
H       -3.56281136      12.29146001      -0.95862038
H       -5.27041514      12.74417477      -0.67789300
C       -3.76518472      14.21762332       1.36139443
C       -3.60745832      15.34652202       0.96750853
Br      -3.35242808      17.17185574       0.33062834
O        2.90148167      -7.35404435       4.29578155
C        3.47191820      -6.36448841       4.74617742
C        4.41319000      -5.50316627       3.90977261
O        4.28018002      -4.11158490       4.18473815
C        3.41750493      -3.41655251       3.38034463
C        2.29410677      -3.95403686       2.74811396
C        1.48293404      -3.14078036       1.94940898
C        1.79131720      -1.79131720       1.79131720
C        2.89717323      -1.24267729       2.43539772
C        3.70295128      -2.05589803       3.23621045
N        3.36403679      -5.93322577       6.06178728
C        2.65894461      -6.47915530       7.12071428
S        2.75243608      -5.62744189       8.55682412
N        1.96046664      -7.62312593       6.83381048
C        1.18542145      -8.48297775       7.62215498
C        1.29333810      -8.60721971       8.99743958
C        0.43434186      -9.47514373       9.67164461
C       -0.50634588     -10.20554458       8.95570656
C       -0.53309806     -10.06824856       7.57008578
C       -1.51419313     -10.81360717       6.71280496
N        0.31357567      -9.22966880       6.90828258
H        4.29743918      -5.73095938       2.84325000
H        5.43551985      -5.78944481       4.18299545
H        2.01117245      -4.99637518       2.85924757
H        0.61325159      -3.57113117       1.45867212
H        3.14108431      -0.18969720       2.32091124
H        4.56651715      -1.62554598       3.73801341
H        3.83118061      -5.06041034       6.28537781
H        1.84613341      -7.83647424       5.84342574
H        2.04116632      -8.07965362       9.57271498
H        0.51047417      -9.56731991      10.75166134
H       -1.32966403     -10.61718511       5.65159563
H       -2.53652020     -10.49349047       6.93868072
H       -1.42481564     -11.89307881       6.86843374
C       -1.40382718     -11.06673618       9.68129347
C       -2.15546776     -11.78798414      10.28897250
Br      -3.37080702     -12.95418109      11.27153810
C       -0.00445707       0.01189536      -1.78238275
H       -0.66409135       0.67374010      -2.43557963
H        0.65740317      -0.63156657      -2.45157240
C       -0.90989263      -0.90692880      -0.91072765
C        0.90977584       0.90977584      -0.90977584
C       -0.00465871       1.77757030       0.00794375
H       -0.66225468       2.44313916      -0.64384735
H        0.64322798       2.43503045       0.67728295
C       -1.78241447       0.00034974      -0.00472694
H       -2.45427497      -0.65498947       0.64260836
H       -2.43311707       0.67328779      -0.65473579
C       -0.91132561       0.90220522       0.91563759
C       -0.01476271      -0.02253852       1.78660255
H       -0.67934791      -0.69751639       2.42135241
H        0.63392994       0.61504881       2.47327442
C        0.01484550      -1.77751727      -0.01636693
H        0.67870853      -2.42144646      -0.68295456
H       -0.62264859      -2.45592969       0.64226336
C        1.78714474       0.01002794       0.00389507
H        2.44202412       0.67113390       0.66197326
H        2.45385902      -0.65136977      -0.64189061
C        0.91606151      -0.90478549       0.90901405
