157
Properties=species:S:1:pos:R:3 pbc="F F F"
C        0.00000000       0.00000000       0.00000000
C        0.86683045       0.86683045      -0.86683045
C        0.42550727       1.65245865      -1.90538088
C        1.57621093       2.28519325      -2.43453979
C        2.65076466       1.87795019      -1.66301364
O        2.21330460       0.97973407      -0.72626916
C        4.06382777       2.18676706      -1.79227627
O        4.53234077       2.51861366      -2.88350315
N        4.89332206       2.08575487      -0.66661858
C        4.43312633       2.25062638       0.71918811
C        5.21226821       1.36780155       1.71281754
H        4.98196245       1.73617375       2.71997795
C        4.72790060      -0.08586646       1.64865551
N        6.67385820       1.43269701       1.51043274
C        7.14813208       1.38662605       0.11840318
C        6.33978421       2.26828256      -0.85654210
H        6.60350372       1.94246550      -1.87089394
C        6.74421156       3.74388758      -0.74765651
C        7.48884728       1.15373808       2.62258692
O        7.05661536       1.32130937       3.76422859
C        8.84186686       0.66182392       2.40977787
C        9.96127373       0.73836514       3.22061051
C       10.99788955       0.02911809       2.56418371
C       10.44505119      -0.46668416       1.40746766
Br      11.33848153      -1.50627865       0.14299437
O        9.14198131      -0.09989469       1.31063891
H       -0.59474495       1.75101186      -2.24855763
H        1.63283218       2.96428940      -3.27522570
H        3.36035343       2.10027055       0.83467183
H        4.59610751       3.30549351       0.97220762
H        4.92753745      -0.53615991       0.67064973
H        3.65095164      -0.14626495       1.83675246
H        5.23410561      -0.69879224       2.40238892
H        8.19964434       1.68645324       0.07041892
H        7.07689660       0.34002183      -0.20135201
H        6.58251142       4.14021006       0.25989380
H        6.16541440       4.36117981      -1.44292001
H        7.80498431       3.87226740      -0.98729179
H       10.00889243       1.24816815       4.17373729
H       12.01440609      -0.11405249       2.90279367
C       -0.86683045      -0.86683045      -0.86683045
C       -1.67075886      -1.89001246      -0.42257547
C       -2.29580781      -2.42565880      -1.57447736
C       -1.86572848      -1.67270225      -2.65329776
O       -0.96134540      -0.74172036      -2.21624207
C       -2.15867593      -1.81578893      -4.06840624
O       -2.49832374      -2.90860621      -4.52752763
N       -2.03337974      -0.70191489      -4.91040088
C       -2.18659037       0.69146222      -4.46943646
C       -1.28187296       1.66431011      -5.24968937
H       -1.64044690       2.67873824      -5.03644960
C        0.16479231       1.58827177      -4.74644271
N       -1.33125139       1.44449634      -6.70936742
C       -1.29672702       0.04618738      -7.16581532
C       -2.20040324      -0.90762875      -6.35657688
H       -1.88405541      -1.92913956      -6.60366818
C       -3.66942981      -0.78560428      -6.78072156
C       -1.02838359       2.54285435      -7.53446921
O       -1.18699910       3.69178803      -7.11848509
C       -0.52250823       2.30710353      -8.87850822
C       -0.57509401       3.10476988     -10.00870423
C        0.13863388       2.42674101     -11.02819882
C        0.61308591       1.27099237     -10.45497765
Br       1.64774656      -0.01727667     -11.31967839
O        0.22906372       1.19498506      -9.15549650
H       -1.78617412      -2.21917324       0.60052282
H       -2.98460401      -3.25854265      -1.62920062
H       -2.04805259       0.81847591      -3.39637548
H       -3.23612249       0.95542321      -4.64869411
H        0.60526067       0.60236606      -4.92835454
H        0.21424231       1.78904972      -3.67122626
H        0.79328708       2.32800115      -5.25421268
H       -1.58413213      -0.01122720      -8.22031934
H       -0.25515819      -0.28554329      -7.07756895
H       -4.05509827       0.22870144      -6.63643085
H       -4.30245560      -1.46591193      -6.20114668
H       -3.78769417      -1.03687164      -7.83997767
H       -1.07232253       4.06344557     -10.07444633
H        0.29855647       2.75083181     -12.04694821
C       -0.86683045       0.86683045       0.86683045
C       -0.48255699       1.44912556       2.05166424
C       -1.60962554       2.16730631       2.51901212
C       -2.60702066       2.01285646       1.57185137
O       -2.15606248       1.18406315       0.57918220
C       -3.97548900       2.49876588       1.56861622
O       -4.54821923       2.75651511       2.62972325
N       -4.64478836       2.65426763       0.34663952
C       -3.97785178       2.92187151      -0.93515869
C       -4.71226029       2.28599733      -2.13100540
H       -4.29934073       2.73929138      -3.04047385
C       -4.42397852       0.78196224      -2.21256213
N       -6.16863417       2.53009801      -2.10260971
C       -6.83568152       2.38042120      -0.79974777
C       -6.07010001       3.01334231       0.38116654
H       -6.51162876       2.60566418       1.29957021
C       -6.27087092       4.53319976       0.43168497
C       -6.84743852       2.50708159      -3.33452168
O       -6.24192379       2.75126978      -4.37949742
C       -8.26701222       2.18762390      -3.36072320
C       -9.24352450       2.51959122      -4.28408735
C      -10.44123067       1.88769738      -3.86610413
C      -10.12140603       1.18088548      -2.73139214
Br     -11.30439089       0.12964563      -1.74482801
O       -8.80974889       1.34639088      -2.42469206
H        0.48370919       1.36054875       2.52798497
H       -1.69986168       2.73915709       3.43332851
H       -2.92616830       2.63772513      -0.93794128
H       -3.97286398       4.01218438      -1.05565498
H       -4.81273782       0.24746069      -1.33947069
H       -3.34694673       0.59452774      -2.27354025
H       -4.89076746       0.34345901      -3.10130202
H       -7.83863907       2.81672183      -0.83968224
H       -6.93915897       1.30290914      -0.62379767
H       -5.92186432       5.02363348      -0.48267012
H       -5.72401869       4.97298356       1.27251197
H       -7.33089533       4.77881984       0.55482832
H       -9.09386269       3.14421589      -5.15475529
H      -11.40994890       1.93135461      -4.34374358
C        0.86683045      -0.86683045       0.86683045
C        1.76889000      -1.80050721       0.41394959
C        2.35274102      -2.37391852       1.56928443
C        1.79993446      -1.72943528       2.66235876
O        0.86274373      -0.83170320       2.22486090
C        2.00800808      -1.95276766       4.08209537
O        2.39313566      -3.05050417       4.49081775
N        1.74863674      -0.91211428       4.98494449
C        1.83153981       0.51609042       4.64911522
C        0.81050148       1.36918544       5.42593618
H        1.10959212       2.41767416       5.30624030
C       -0.59065804       1.23345235       4.81748902
N        0.77864321       1.05021183       6.86769109
C        0.81319217      -0.37614568       7.22701711
C        1.83376317      -1.20831300       6.42253270
H        1.57496178      -2.26345640       6.57844497
C        3.25915314      -1.01972407       6.95687845
C        0.34475459       2.06487005       7.74011390
O        0.44871048       3.24837022       7.41335589
C       -0.23095969       1.70149081       9.02636341
C       -0.30994408       2.41876881      10.20774126
C       -1.03970789       1.62444631      11.12697812
C       -1.39207482       0.48338043      10.44635462
Br      -2.38776237      -0.92857035      11.14840052
O       -0.91849020       0.52524951       9.17518743
H        1.97478930      -2.04796216      -0.61792693
H        3.09370584      -3.16117989       1.61746156
H        1.75565477       0.70939805       3.57969543
H        2.84555534       0.83554752       4.91938557
H       -0.97120596       0.21015337       4.90208715
H       -0.58296095       1.50622421       3.75711938
H       -1.30222202       1.89211836       5.32726483
H        1.03353769      -0.48901651       8.29312446
H       -0.19411610      -0.76897712       7.04340941
H        3.58065704       0.02554847       6.90771910
H        3.97576615      -1.61385897       6.37988910
H        3.32458093      -1.33706280       8.00289976
H        0.11263974       3.40116794      10.37185149
H       -1.28925767       1.86421844      12.15103605
