165
Properties=species:S:1:pos:R:3 pbc="F F F"
C        0.00000000       0.00000000       0.00000000
C        0.86683045       0.86683045      -0.86683045
C        0.42550727       1.65245865      -1.90538088
C        1.57621093       2.28519325      -2.43453979
C        2.65076466       1.87795019      -1.66301364
O        2.21330460       0.97973407      -0.72626916
C        4.06382777       2.18676706      -1.79227627
O        4.53234077       2.51861366      -2.88350315
N        4.89332206       2.08575487      -0.66661858
C        4.43312633       2.25062638       0.71918811
C        5.21226821       1.36780155       1.71281754
H        4.98196245       1.73617375       2.71997795
C        4.72790060      -0.08586646       1.64865551
N        6.67385820       1.43269701       1.51043274
C        7.14813208       1.38662605       0.11840318
C        6.33978421       2.26828256      -0.85654210
H        6.60350372       1.94246550      -1.87089394
C        6.74421156       3.74388758      -0.74765651
C        7.48884728       1.15373808       2.62258692
O        7.05661536       1.32130937       3.76422859
C        8.84186686       0.66182392       2.40977787
C        9.96127373       0.73836514       3.22061051
C       10.99788955       0.02911809       2.56418371
C       10.44505119      -0.46668416       1.40746766
O        9.14198131      -0.09989469       1.31063891
H       -0.59474495       1.75101186      -2.24855763
H        1.63283218       2.96428940      -3.27522570
H        3.36035343       2.10027055       0.83467183
H        4.59610751       3.30549351       0.97220762
H        4.92753745      -0.53615991       0.67064973
H        3.65095164      -0.14626495       1.83675246
H        5.23410561      -0.69879224       2.40238892
H        8.19964434       1.68645324       0.07041892
H        7.07689660       0.34002183      -0.20135201
H        6.58251142       4.14021006       0.25989380
H        6.16541440       4.36117981      -1.44292001
H        7.80498431       3.87226740      -0.98729179
H       10.00889243       1.24816815       4.17373729
H       12.01440609      -0.11405249       2.90279367
C       11.13492029      -1.26941503       0.43109489
C       11.71268566      -1.94170214      -0.38661729
Br      12.64688340      -3.02873353      -1.70878874
C       -0.86683045      -0.86683045      -0.86683045
C       -0.84376056      -2.24125405      -0.89833219
C       -1.81684562      -2.62777852      -1.85131983
C       -2.40557061      -1.46611356      -2.32004431
O       -1.79252534      -0.38836754      -1.73841496
C       -3.42643856      -1.28042868      -3.33600386
O       -3.59000643      -2.12677312      -4.21767803
N       -4.21194528      -0.11944732      -3.31430290
C       -4.51579823       0.65279946      -2.10156584
C       -4.65235596       2.16244820      -2.37734446
H       -5.11786190       2.61084556      -1.49114193
C       -3.27409210       2.81611859      -2.53540512
N       -5.49827572       2.45446983      -3.55231657
C       -5.28821250       1.61198878      -4.74013124
C       -5.13964859       0.10721209      -4.43217238
H       -4.72289185      -0.36069166      -5.33327964
C       -6.50145834      -0.55271651      -4.18158079
C       -6.13970399       3.70599988      -3.58629434
O       -6.38198724       4.30598043      -2.53768934
C       -6.50786069       4.28407288      -4.87012512
C       -7.49234784       5.20325115      -5.18993168
C       -7.36774711       5.47932506      -6.57440187
C       -6.29609890       4.73923289      -7.01403336
O       -5.76374774       4.02348793      -5.99118790
H       -0.20030508      -2.88701280      -0.31750666
H       -2.07474582      -3.63009903      -2.16750244
H       -3.80840413       0.47487021      -1.29241824
H       -5.47217883       0.26868930      -1.72590386
H       -2.73966992       2.42758990      -3.40864780
H       -2.65430797       2.63709493      -1.65072119
H       -3.36931057       3.89988969      -2.66350358
H       -6.11526949       1.74425057      -5.44465974
H       -4.37029181       1.97215375      -5.22013237
H       -7.02825871      -0.09805809      -3.33651088
H       -6.38569975      -1.61981746      -3.96399700
H       -7.14483977      -0.45717082      -5.06253290
H       -8.20868962       5.61936807      -4.49400174
H       -7.97463134       6.14688521      -7.16981380
C       -5.79258650       4.72119050      -8.36301436
C       -5.37089486       4.70607999      -9.49278595
Br      -4.68905515       4.68164759     -11.31953105
C       -0.86683045       0.86683045       0.86683045
C       -2.21952293       1.05559692       0.70822695
C       -2.61488379       1.94254434       1.73851584
C       -1.48567442       2.21489009       2.49116398
O       -0.41012913       1.58039191       1.92878679
C       -1.31447191       3.09458292       3.63381628
O       -2.08008986       4.04507801       3.80928971
N       -0.25789869       2.86231203       4.52548479
C        0.34810015       1.54556893       4.76709583
C        1.85278473       1.63373556       5.08630138
H        2.15353234       0.65994185       5.49174876
C        2.67062987       1.85585823       3.80815027
N        2.16498132       2.67632228       6.08478151
C        1.47643832       3.96685749       5.92593579
C       -0.02533706       3.84755050       5.59172131
H       -0.34936168       4.83333720       5.23416427
C       -0.85689101       3.53634486       6.84251977
C        3.33297814       2.50346292       6.84951366
O        3.79230617       1.37465606       7.03134627
C        3.99292892       3.66976974       7.41707210
C        4.82264698       3.78219275       8.51948259
C        5.24997810       5.13205754       8.58074448
C        4.68412195       5.75887374       7.49614758
O        3.93310930       4.88273083       6.78182618
H       -2.84398852       0.61970866      -0.05887264
H       -3.60266644       2.34216051       1.92752033
H        0.17011501       0.83762988       3.95843728
H       -0.17770598       1.12068757       5.63099983
H        2.43552951       2.81706577       3.33919156
H        2.47400525       1.06449876       3.07744071
H        3.74406964       1.85036623       4.02662787
H        1.58515719       4.56441655       6.83641930
H        1.98481089       4.49367446       5.10940687
H       -0.55270966       2.59628463       7.31383340
H       -1.92060651       3.45358789       6.59531982
H       -0.74582135       4.33105494       7.58766719
H        5.08244012       2.97467989       9.19108352
H        5.90160343       5.58360804       9.31555532
C        4.85995904       7.14531162       7.14905779
C        5.00722261       8.30645334       6.85837008
Br       5.24533534      10.18392130       6.38835265
C        0.86683045      -0.86683045       0.86683045
C        2.23800133      -0.94473853       0.80060694
C        2.62580071      -1.87824533       1.79189793
C        1.46987177      -2.28890023       2.43295650
O        0.39161255      -1.69178655       1.83590873
C        1.28563706      -3.26474878       3.49248527
O        2.10814327      -4.16835525       3.65795907
N        0.15271444      -3.17919424       4.31378683
C       -0.56957952      -1.93230258       4.60184155
C       -2.08194496      -2.15319795       4.79599923
H       -2.48586873      -1.23805705       5.24596994
C       -2.78582670      -2.33370495       3.44550038
N       -2.38333597      -3.28998262       5.68947582
C       -1.58696263      -4.51129583       5.49202175
C       -0.07882773      -4.25847903       5.28495757
H        0.34572278      -5.18758862       4.88355175
C        0.63373587      -3.98627774       6.61574203
C       -3.61329232      -3.26167265       6.37161811
O       -4.17083305      -2.18644607       6.59808313
C       -4.21981614      -4.51306187       6.80066718
C       -5.11556770      -4.77028600       7.82431007
C       -5.44003773      -6.14810368       7.75475797
C       -4.75051537      -6.64635451       6.67506024
O       -4.02032419      -5.66553189       6.08624001
H        2.88036404      -0.40671055       0.11774995
H        3.62544854      -2.21911650       2.02778225
H       -0.38932428      -1.15269978       3.86257666
H       -0.14199446      -1.53904002       5.53234784
H       -2.44358185      -3.23612688       2.92818279
H       -2.59913472      -1.47586401       2.79120494
H       -3.86939310      -2.42256837       3.57974918
H       -1.71425430      -5.18405950       6.34587346
H       -1.99270680      -5.00834440       4.60263283
H        0.22427215      -3.11004493       7.12851060
H        1.70284646      -3.80813150       6.45853626
H        0.53133711      -4.84240708       7.29079930
H       -5.48502817      -4.03821589       8.53013557
H       -6.10586379      -6.70115434       8.40226938
C       -4.79264044      -8.01069246       6.21635834
C       -4.82792019      -9.15332550       5.83219551
Br      -4.88496456     -11.00086648       5.21103670
