177
Properties=species:S:1:pos:R:3 pbc="F F F"
C        0.00000000       0.00000000       0.00000000
C        0.88131892       0.88131892      -0.88131892
C        2.03656020       0.35289668      -1.45304890
C        2.84249811       1.15840942      -2.26552238
C        2.49063561       2.48938059      -2.52878270
C        1.33246344       3.00777598      -1.92549321
C        0.52883390       2.20859417      -1.10582796
C        3.29650800       3.34459055      -3.41125432
N        3.38952097       4.65785103      -3.16784768
N        4.13101561       5.15684628      -4.17177626
C        4.32511800       6.59339805      -4.26465788
C        3.14587780       7.45151528      -3.78414605
C        3.78717518       8.81154848      -3.56606843
C        5.11403865       8.47512989      -2.90149054
C        5.52501392       7.10943803      -3.45534606
C        4.59542414       4.18985831      -5.03406344
C        5.46804983       4.44145316      -6.17938594
C        6.78963011       4.86424280      -5.98747425
C        7.62990993       5.08369238      -7.08202871
C        7.15416763       4.86159658      -8.37240163
Br       8.29658852       5.13651544      -9.85338775
C        5.84556899       4.43025299      -8.57965413
C        5.00353615       4.22642822      -7.48352542
C        4.02973927       2.99810963      -4.59175839
C        4.16847602       1.65679751      -5.22009194
H        2.32226719      -0.68013347      -1.27152990
H        3.75227741       0.73081336      -2.67555005
H        1.04875016       4.04489843      -2.09751270
H       -0.36286305       2.63359913      -0.65454996
H        4.48660295       6.82789294      -5.32533496
H        2.72845353       7.09047370      -2.83731550
H        2.33504948       7.48697888      -4.51757744
H        3.96038047       9.30835693      -4.52860124
H        3.16980723       9.47070052      -2.94849052
H        5.87157130       9.24210557      -3.09421594
H        4.98291745       8.40621110      -1.81557569
H        6.40441095       7.21080381      -4.10015929
H        5.80134943       6.43595412      -2.63653923
H        7.17958084       5.01081719      -4.98221460
H        8.65127046       5.41448691      -6.91569688
H        5.47375418       4.24508053      -9.58239045
H        3.98363917       3.88780622      -7.65222751
H        3.23452625       1.09051979      -5.14969171
H        4.96397558       1.08846479      -4.72771106
H        4.41653257       1.72379356      -6.28278838
C       -0.88131892      -0.88131892      -0.88131892
C       -0.31025203      -1.92233193      -1.60992181
C       -1.11801906      -2.73430818      -2.41410267
C       -2.50242547      -2.52557772      -2.48079571
C       -3.05441616      -1.45739417      -1.75392231
C       -2.24938955      -0.63810870      -0.95575779
C       -3.37905156      -3.38881551      -3.28448580
N       -4.46586042      -2.87525343      -3.87410584
N       -5.07614563      -3.91485024      -4.46864228
C       -6.36391647      -3.71042687      -5.10883061
C       -7.27114115      -2.66272629      -4.44767169
C       -8.27368390      -2.34644700      -5.54466118
C       -7.41555112      -2.27584283      -6.79926513
C       -6.26198048      -3.25500761      -6.57280993
C       -4.37589406      -5.09374093      -4.34971090
C       -4.77713359      -6.36720598      -4.94454936
C       -4.76976407      -6.53655864      -6.33502446
C       -5.13259598      -7.76090348      -6.90213155
C       -5.48572214      -8.82595516      -6.07648854
Br      -5.95531937     -10.48984300      -6.84132935
C       -5.48732151      -8.67704083      -4.69111377
C       -5.13857387      -7.44681650      -4.12809941
C       -3.28364556      -4.79457798      -3.54138375
C       -2.24463861      -5.74307171      -3.05765514
H        0.75963279      -2.10931970      -1.56397671
H       -0.64426161      -3.52043922      -2.99393999
H       -4.12430451      -1.26144790      -1.80540886
H       -2.70235095       0.17870389      -0.40163898
H       -6.89644896      -4.67023764      -5.07314424
H       -6.72547231      -1.75075799      -4.18001243
H       -7.75202907      -3.04501497      -3.54256176
H       -9.00820480      -3.15639067      -5.63274317
H       -8.81515162      -1.41384891      -5.35999774
H       -7.99022585      -2.51827668      -7.69939027
H       -7.01729172      -1.26254736      -6.92486516
H       -6.35552295      -4.11344910      -7.24640199
H       -5.30483080      -2.77151384      -6.79749814
H       -4.46588153      -5.71991200      -6.98681910
H       -5.12447012      -7.87442928      -7.98255485
H       -5.75083113      -9.50706930      -4.04332472
H       -5.14003561      -7.33787041      -3.04576688
H       -1.93716919      -5.50236782      -2.03520073
H       -1.36546054      -5.70593853      -3.70875237
H       -2.60442384      -6.77539561      -3.04329505
C       -0.88131892       0.88131892       0.88131892
C       -1.86899413       1.67339673       0.30011492
C       -2.68110378       2.47775443       1.10757171
C       -2.52638589       2.48177142       2.50064159
C       -1.51074022       1.69106091       3.06393151
C       -0.69120936       0.89230575       2.25974093
C       -3.39249431       3.28503321       3.37482534
N       -2.90090149       3.81037776       4.50394044
N       -3.94043057       4.42239382       5.09681376
C       -3.76367968       5.00294406       6.41655021
C       -2.78035996       4.26479861       7.33638056
C       -2.46248905       5.30801837       8.39428468
C       -2.30809532       6.59127990       7.59128386
C       -3.24764832       6.45006064       6.39208906
C       -5.09362182       4.37893813       4.34678594
C       -6.35813611       5.00893077       4.72182206
C       -6.47259908       6.40436711       4.76438098
C       -7.68759311       7.00617586       5.10186205
C       -8.79756231       6.21135292       5.37925061
Br     -10.44801616       7.02428043       5.81419512
C       -8.70307132       4.82206517       5.33033963
C       -7.48261988       4.22355339       5.00731652
C       -4.78210545       3.60240387       3.23509798
C       -5.70574472       3.19859791       2.14102284
H       -2.01398091       1.67692349      -0.77724078
H       -3.42407052       3.10713905       0.62743125
H       -1.35659285       1.69270242       4.14186601
H        0.08424036       0.28816373       2.72136268
H       -4.74500889       4.98553354       6.90928841
H       -1.85811360       3.98180440       6.81632473
H       -3.21695124       3.35788483       7.76476972
H       -3.29756667       5.40019521       9.09957675
H       -1.56060319       5.06457885       8.96381623
H       -2.53834360       7.47737934       8.19216986
H       -1.27531306       6.69104096       7.23835022
H       -4.08221260       7.15382851       6.47933294
H       -2.71723105       6.69212620       5.46448553
H       -5.61943344       7.03379391       4.51938528
H       -7.75839984       8.08981344       5.13324097
H       -9.56779956       4.19875888       5.53466672
H       -7.41618921       3.13845615       4.96902754
H       -5.49286640       2.17999543       1.80187592
H       -5.60748984       3.88149580       1.29116579
H       -6.75161516       3.21217651       2.45932284
C        0.88131892      -0.88131892       0.88131892
C        1.95855306      -0.32032710       1.56362562
C        2.76404260      -1.12628981       2.37609750
C        2.48810261      -2.49200160       2.52869469
C        1.40928745      -3.04103507       1.81541012
C        0.60699148      -2.24073416       0.99553041
C        3.29244424      -3.35224547       3.40766316
N        3.49070049      -4.63704966       3.08746954
N        4.19873480      -5.15510934       4.10579401
C        4.48451580      -6.57923263       4.11942551
C        3.40014233      -7.47625660       3.50514020
C        4.14584308      -8.77419366       3.24475534
C        5.48640888      -8.30858387       2.69566632
C        5.76640585      -6.96053669       3.36285548
C        4.53948078      -4.22172421       5.05814088
C        5.35203466      -4.49475932       6.24209495
C        6.70907473      -4.81775016       6.11452228
C        7.49047819      -5.05737602       7.24777680
C        6.91883865      -4.95524949       8.51407769
Br       7.98006384      -5.25721351      10.04921437
C        5.57315236      -4.62396159       8.65836217
C        4.79117587      -4.39989602       7.52241789
C        3.92295701      -3.04120044       4.65544984
C        3.92881219      -1.73999453       5.37655875
H        2.18381412       0.73891185       1.46876135
H        3.61418444      -0.67033724       2.87411913
H        1.18690121      -4.10356903       1.90069103
H       -0.22267954      -2.69011893       0.45784665
H        4.59332758      -6.87505610       5.17144717
H        3.02054273      -7.07866839       2.55703161
H        2.54828117      -7.61386043       4.17746420
H        4.29060387      -9.32369108       4.18304370
H        3.61601035      -9.42769229       2.54529563
H        6.28081869      -9.03679308       2.89028102
H        5.42079796      -8.17392700       1.60997928
H        6.60750634      -7.04925570       4.05861201
H        6.04786731      -6.21616260       2.60981286
H        7.17183507      -4.86974018       5.13103740
H        8.54067647      -5.30978964       7.13098814
H        5.12596330      -4.53220767       9.64305420
H        3.74174598      -4.13975814       7.64216878
H        2.96467841      -1.23129997       5.27875937
H        4.71341508      -1.08938587       4.97735048
H        4.11219943      -1.86364438       6.44727070
