141
Properties=species:S:1:pos:R:3 pbc="F F F"
C        0.00000000       0.00000000       0.00000000
C        0.88132061       0.88132061      -0.88132061
C        0.29284499       1.77294112      -1.77852626
C        1.09382779       2.59335769      -2.58314314
C        2.48414953       2.52029826      -2.49273961
N        3.37640752       3.31478188      -3.24626564
C        3.06165644       4.40441917      -4.02878179
O        1.94083995       4.87547959      -4.20212823
C        4.27845399       5.10291696      -4.60482462
C        4.30249002       6.56169888      -4.15814631
C        4.47988790       6.65680302      -2.65351978
O        5.60309998       6.72314478      -2.16318431
N        3.28650800       6.56835905      -1.96330539
C        3.10433894       6.56664915      -0.56377003
C        4.10677321       6.86867163       0.35845081
C        3.83108175       6.84165194       1.73159226
C        2.55429569       6.50724760       2.18367388
Br       2.19583399       6.46661639       4.03854008
C        1.54342557       6.20596916       1.27850857
C        1.82705554       6.24512199      -0.08271910
F        0.84820989       5.95199940      -0.95361714
C        3.04918054       1.60430534      -1.59453555
F        4.38593992       1.51900106      -1.49763202
C        2.26488556       0.79009702      -0.78455621
H       -0.78954968       1.84221745      -1.86223504
H        0.59872813       3.27000557      -3.27317593
H        4.35930063       3.11296146      -3.08049414
H        4.20884791       5.04327203      -5.69675600
H        5.20310503       4.59760397      -4.30605851
H        3.38908156       7.08987031      -4.45505205
H        5.13930630       7.08674482      -4.63321776
H        2.43853924       6.38183621      -2.50168101
H        5.10897384       7.14334682       0.04284240
H        4.62275814       7.08587424       2.43643991
H        0.54421036       5.94207106       1.60791233
H        2.74320342       0.10504496      -0.09281465
C       -0.88132061      -0.88132061      -0.88132061
C       -2.01816484      -1.48396664      -0.34218090
C       -2.83864430      -2.28525490      -1.14642943
C       -2.52077927      -2.48648591      -2.48992223
N       -3.29099103      -3.26084858      -3.38561542
C       -4.55117271      -3.77448033      -3.16920436
O       -5.22557105      -3.64133415      -2.15154258
C       -5.13983256      -4.45776357      -4.38859944
C       -6.45627893      -3.79043521      -4.77562106
C       -6.21964675      -2.35649502      -5.21406893
O       -6.00096326      -2.09525809      -6.39320772
N       -6.19375681      -1.46695794      -4.15745769
C       -5.94380260      -0.07899536      -4.21196015
C       -5.88682134       0.66235405      -5.39252675
C       -5.63309081       2.03924484      -5.34729547
C       -5.43070957       2.67475697      -4.12191680
Br      -5.08167286       4.53123227      -4.07346971
C       -5.48640884       1.95168443      -2.93616175
C       -5.74818174       0.58672516      -2.99344004
F       -5.79966284      -0.10826773      -1.84589586
C       -1.36405836      -1.88223233      -3.00173074
F       -1.04190556      -2.06855080      -4.29211664
C       -0.54575750      -1.07805873      -2.21572257
H       -2.28025719      -1.33813444       0.70348882
H       -3.71121109      -2.74178935      -0.68890919
H       -2.90094490      -3.32947563      -4.32233570
H       -5.31086260      -5.50861173      -4.12940160
H       -4.43975418      -4.43638353      -5.23062980
H       -7.17621533      -3.80848399      -3.94930459
H       -6.91996523      -4.32921023      -5.61009342
H       -6.26049849      -1.84916728      -3.21239069
H       -6.04964647       0.20344113      -6.36327293
H       -5.59826480       2.60298576      -6.27691344
H       -5.33075878       2.42510800      -1.97271832
H        0.33250013      -0.61792197      -2.65564118
C       -0.88132061       0.88132061       0.88132061
C       -2.03226235       1.46297257       0.34907745
C       -2.85270204       2.26405971       1.15356688
C       -2.52073123       2.48610320       2.49035297
N       -3.28943672       3.26204331       3.38597500
C       -4.55856889       3.75722175       3.17906676
O       -5.24382675       3.60292203       2.17169900
C       -5.14058502       4.44842246       4.39718809
C       -6.44362648       3.76971537       4.80899335
C       -6.18355222       2.34445217       5.26220631
O       -5.94697264       2.10080118       6.44165524
N       -6.15960243       1.44208744       4.21648257
C       -5.89155504       0.05813156       4.28507151
C       -5.81059670      -0.66754729       5.47394462
C       -5.54015152      -2.04164049       5.44263041
C       -5.34502875      -2.68995037       4.22279103
Br      -4.97330087      -4.54240990       4.19301934
C       -5.42453988      -1.98259488       3.02894115
C       -5.70272651      -0.62037971       3.07254983
F       -5.77719241       0.05943346       1.91720056
C       -1.35023515       1.90274708       2.99503919
F       -1.01444929       2.10926574       4.27885797
C       -0.53171089       1.09897740       2.20885051
H       -2.30546694       1.30075742      -0.69132155
H       -3.73655638       2.70393170       0.70142154
H       -2.88868054       3.34728439       4.31679130
H       -5.32802326       5.49372254       4.12713013
H       -4.42988913       4.44633027       5.23054812
H       -7.17394023       3.76842781       3.99163587
H       -6.90365196       4.31314175       5.64247518
H       -6.24287813       1.81152279       3.26765553
H       -5.96711112      -0.19852004       6.44088718
H       -5.48669539      -2.59316973       6.37866683
H       -5.27492622      -2.46612777       2.06957065
H        0.35766009       0.65535297       2.64337014
C        0.88132061      -0.88132061       0.88132061
C        0.68796767      -2.26289076       0.89345394
C        1.49935709      -3.08026468       1.69070687
C        2.50290508      -2.51573127       2.47855104
N        3.38240593      -3.25361883       3.30143028
C        3.54528220      -4.62163854       3.32793666
O        2.94928431      -5.43833833       2.63082514
C        4.66333262      -5.07663137       4.24623157
C        5.69862839      -5.86961442       3.45409239
C        6.37990332      -4.98266987       2.42763751
O        7.40268520      -4.36922118       2.71752268
N        5.68071090      -4.89825941       1.23920213
C        6.00650775      -4.12141838       0.10683198
C        7.22359094      -3.46232675      -0.06892366
C        7.45716111      -2.71346800      -1.22948768
C        6.47180911      -2.61864331      -2.21258300
Br       6.79506021      -1.59946055      -3.77061045
C        5.25460411      -3.27087125      -2.05458921
C        5.03800342      -4.01888691      -0.90199370
F        3.86036894      -4.64609798      -0.75264049
C        2.66487984      -1.12343727       2.45970432
F        3.62405801      -0.56367260       3.21484239
C        1.87117179      -0.30191883       1.66644817
H       -0.09029606      -2.71942105       0.28577782
H        1.31411725      -4.15014177       1.67765060
H        4.03570925      -2.68381688       3.83323010
H        4.21779103      -5.70771901       5.02336589
H        5.13656306      -4.22448747       4.74571699
H        5.24788276      -6.73367933       2.95244182
H        6.46825873      -6.26232541       4.12868475
H        4.77181371      -5.36194538       1.18829738
H        8.01721292      -3.52224725       0.67001809
H        8.41403984      -2.21113505      -1.35298241
H        4.47413602      -3.20962050      -2.80538742
H        2.03967541       0.76961115       1.67099877
