162
Properties=species:S:1:pos:R:3 pbc="F F F"
C        1.79122463       1.79122463      -1.79122463
C        1.20274902       2.68284514      -2.68843029
C        2.00373182       3.50326172      -3.49304716
C        3.39405355       3.43020229      -3.40264364
N        4.28631154       4.22468591      -4.15616966
C        3.97156047       5.31432319      -4.93868581
O        2.85074398       5.78538361      -5.11203226
C        5.18835801       6.01282099      -5.51472864
C        5.21239404       7.47160290      -5.06805033
C        5.38979192       7.56670705      -3.56342380
O        6.51300400       7.63304880      -3.07308833
N        4.19641202       7.47826308      -2.87320942
C        4.01424296       7.47655317      -1.47367405
C        5.01667724       7.77857565      -0.55145322
C        4.74098578       7.75155597       0.82168824
C        3.46419971       7.41715163       1.27376986
Br       3.10573802       7.37652042       3.12863606
C        2.45332959       7.11587318       0.36860455
C        2.73695956       7.15502601      -0.99262312
F        1.75811391       6.86190342      -1.86352117
C        3.95908456       2.51420936      -2.50443958
F        5.29584394       2.42890508      -2.40753605
C        3.17478959       1.70000105      -1.69446024
H        0.12035434       2.75212148      -2.77213906
H        1.50863216       4.17990959      -4.18307995
H        5.26920466       4.02286548      -3.99039816
H        5.11875193       5.95317605      -6.60666002
H        6.11300906       5.50750800      -5.21596254
H        4.29898558       7.99977433      -5.36495608
H        6.04921033       7.99664884      -5.54312179
H        3.34844327       7.29174023      -3.41158503
H        6.01887787       8.05325084      -0.86706162
H        5.53266217       7.99577827       1.52653588
H        1.45411439       6.85197508       0.69800830
H        3.65310744       1.01494898      -1.00271867
C       -1.79122463      -1.79122463      -1.79122463
C       -3.13867307      -1.96245363      -1.47289775
C       -3.95730009      -2.76045387      -2.28228673
C       -3.42777004      -3.38999986      -3.40912957
N       -4.17226160      -4.19893869      -4.29596682
C       -5.54138741      -4.34999654      -4.33318552
O       -6.35393864      -3.79832496      -3.59589625
C       -6.02124301      -5.20239456      -5.49227007
C       -6.98594042      -4.40296573      -6.36314113
C       -6.27230473      -3.23247916      -7.01513889
O       -5.74245315      -3.36204695      -8.11464104
N       -6.22736067      -2.11159828      -6.20892556
C       -5.59623892      -0.88042137      -6.48780990
C       -5.08421469      -0.52612650      -7.73636492
C       -4.47398911       0.72156378      -7.91842818
C       -4.37043173       1.61360927      -6.85075902
Br      -3.53848397       3.29091694      -7.10605534
C       -4.87729195       1.27759687      -5.60090314
C       -5.48915657       0.03945806      -5.43491019
F       -5.97608706      -0.28177004      -4.22568140
C       -2.06711375      -3.21393365      -3.69668609
F       -1.54080094      -3.81568714      -4.77579699
C       -1.24581961      -2.41782910      -2.90560216
H       -3.56757206      -1.47942327      -0.59761955
H       -4.99920345      -2.87410645      -1.99831180
H       -3.62542918      -4.60681832      -5.05022079
H       -6.52868928      -6.07792977      -5.07196895
H       -5.17935093      -5.56608681      -6.09104185
H       -7.84213955      -4.03626393      -5.78531251
H       -7.39106861      -5.03992137      -7.15799098
H       -6.59837714      -2.19285120      -5.26054019
H       -5.15622627      -1.19055826      -8.59240580
H       -4.08576852       0.98394692      -8.90008295
H       -4.80640710       1.95512697      -4.75680104
H       -0.20135606      -2.29713460      -3.17228443
C       -1.79122463       1.79122463       1.79122463
C       -3.02427812       2.23602012       1.31372621
C       -3.84433048       3.03590072       2.11980949
C       -3.43008376       3.39369487       3.40312084
N       -4.18961768       4.18018536       4.29736407
C       -5.50781755       4.55712819       4.15962374
O       -6.25334764       4.26693322       3.22787899
C       -6.04995481       5.30073527       5.36521756
C       -7.25617211       4.56044056       5.93543461
C       -6.84386719       3.20227754       6.47377804
O       -6.49762869       3.07690707       7.64460537
N       -6.82527333       2.22028349       5.50232769
C       -6.43812130       0.87165941       5.65468948
C       -6.20552269       0.25618164       6.88500177
C       -5.82450686      -1.09080057       6.93714722
C       -5.67047212      -1.82173808       5.75884744
Br      -5.14876804      -3.63606004       5.84091437
C       -5.90048626      -1.22476914       4.52488110
C       -6.28725467       0.11084221       4.48651182
F       -6.50699106       0.68405042       3.29249702
C       -2.17958278       2.94641148       3.85173924
F       -1.76432919       3.28465251       5.08330337
C       -1.35979986       2.14524623       3.06420478
H       -3.36230555       1.96694101       0.31536831
H       -4.79401775       3.36709418       1.71050977
H       -3.72687771       4.37346335       5.18212724
H       -6.34426059       6.30228247       5.03204495
H       -5.27949583       5.42298084       6.13400293
H       -8.04460718       4.43466225       5.18444656
H       -7.69439617       5.13450971       6.76007508
H       -7.01193953       2.50168854       4.53814047
H       -6.32570855       0.79085459       7.82262719
H       -5.65324804      -1.55648559       7.90514211
H       -5.78536208      -1.77375311       3.59647220
H       -0.40567595       1.80927785       3.45582130
C        1.79122463      -1.79122463       1.79122463
C        1.20487405      -2.74074997       2.62840042
C        2.00650332      -3.56128316       3.43225422
C        3.39518471      -3.43049342       3.40122135
N        4.28888403      -4.21950592       4.15877716
C        3.98832412      -5.35141685       4.88482850
O        2.88162895      -5.87243871       4.99409219
C        5.20907329      -6.02475105       5.48208330
C        5.30963472      -7.46217360       4.98023896
C        5.54924276      -7.48919835       3.48148166
O        6.69247537      -7.49178014       3.03488562
N        4.38106233      -7.41940992       2.74741227
C        4.25365121      -7.36804761       1.34277137
C        5.30268481      -7.59312986       0.45089144
C        5.07984440      -7.52121266      -0.93020355
C        3.80913573      -7.21876023      -1.42031448
Br       3.52187661      -7.11694359      -3.28519782
C        2.75237446      -6.99405794      -0.54583417
C        2.98409711      -7.07729659       0.82321499
F        1.96097572      -6.85809966       1.66446311
C        3.95717834      -2.45750737       2.56304779
F        5.29213891      -2.31631586       2.52383030
C        3.17267122      -1.64230484       1.75427480
H        0.12373982      -2.85549141       2.66538365
H        1.51273669      -4.28413603       4.07474898
H        5.26849719      -3.97297987       4.04099124
H        5.09460682      -6.01219315       6.57178803
H        6.12341200      -5.47208925       5.24097834
H        4.40752025      -8.03714410       5.21905164
H        6.14790500      -7.97304349       5.46803246
H        3.50589171      -7.28805934       3.25781748
H        6.30213878      -7.84111380       0.79593775
H        5.90763890      -7.70561425      -1.61134859
H        1.75687582      -6.75615826      -0.90495291
H        3.64940839      -0.91164577       1.10972094
C       -0.00445707       0.01189536      -1.78238275
H       -0.66409135       0.67374010      -2.43557963
H        0.65740317      -0.63156657      -2.45157240
C       -0.90989263      -0.90692880      -0.91072765
C        0.90977584       0.90977584      -0.90977584
C       -0.00465871       1.77757030       0.00794375
H       -0.66225468       2.44313916      -0.64384735
H        0.64322798       2.43503045       0.67728295
C       -1.78241447       0.00034974      -0.00472694
H       -2.45427497      -0.65498947       0.64260836
H       -2.43311707       0.67328779      -0.65473579
C       -0.91132561       0.90220522       0.91563759
C       -0.01476271      -0.02253852       1.78660255
H       -0.67934791      -0.69751639       2.42135241
H        0.63392994       0.61504881       2.47327442
C        0.01484550      -1.77751727      -0.01636693
H        0.67870853      -2.42144646      -0.68295456
H       -0.62264859      -2.45592969       0.64226336
C        1.78714474       0.01002794       0.00389507
H        2.44202412       0.67113390       0.66197326
H        2.45385902      -0.65136977      -0.64189061
C        0.91606151      -0.90478549       0.90901405
