150
Properties=species:S:1:pos:R:3 pbc="F F F"
C        1.77659986       1.77659986      -1.77659986
C        2.71751659       2.70337645      -1.32323777
N        3.35354155       3.30530502      -2.33307441
N        2.76414260       2.79581060      -3.45608209
C        1.82499229       1.83248672      -3.14057002
C        3.14949641       3.20885623      -4.74378113
O        2.67238893       2.63272567      -5.71752777
C        4.20522542       4.28821041      -4.75719568
S        4.09084499       5.30112218      -6.26937049
C        2.61695444       6.15178460      -5.95344070
N        1.84909500       5.99149226      -4.90218382
N        0.81480896       6.88844755      -5.00480184
C        0.99020484       7.60177041      -6.10343466
C        0.11539895       8.67384873      -6.48510632
S        0.66956380      10.11907650      -7.22940085
C       -0.90516154      10.78261025      -7.28976824
C       -1.82028585       9.93396673      -6.72225708
C       -1.24629082       8.73126987      -6.24257406
N        2.09456566       7.11703843      -6.77017572
C        2.55786269       7.49766086      -8.07905547
H        2.98038590       2.96527039      -0.30619837
H        1.28858198       1.30854790      -3.91945763
H        5.18676882       3.80401701      -4.73845967
H        4.13791767       4.96670238      -3.90329679
H       -1.07352474      11.75866513      -7.72371448
H       -1.79070862       7.93484998      -5.74747778
H        3.13787505       6.69013359      -8.52990491
H        3.17956859       8.39076096      -7.98009163
H        1.69764138       7.68813412      -8.72556492
C       -3.22880385      10.20931188      -6.60451964
C       -4.40843767      10.43991344      -6.50591454
Br      -6.31580579      10.81277666      -6.34647842
C       -1.77659986      -1.77659986      -1.77659986
C       -2.18414070      -3.07901738      -1.48097273
N       -2.97332835      -3.58466936      -2.43392325
N       -3.02222931      -2.60650603      -3.38729994
C       -2.32982987      -1.47873350      -2.98948565
C       -3.74779861      -2.77427553      -4.58005963
O       -3.85621723      -1.82057323      -5.34585191
C       -4.39562200      -4.13044364      -4.72456588
S       -4.60552608      -4.57513086      -6.48068072
C       -2.95424633      -4.84313514      -6.92479827
N       -1.91423628      -4.68775018      -6.14078462
N       -0.79994618      -5.05372749      -6.85438468
C       -1.18674656      -5.45645389      -8.05220946
C       -0.27380837      -5.96365035      -9.03689527
S       -0.66221488      -7.25359221     -10.10223406
C        0.88293027      -7.21658679     -10.83356043
C        1.68196301      -6.26692261     -10.25097836
C        1.03735437      -5.55479204      -9.21011545
N       -2.54874798      -5.27508741      -8.15794442
C       -3.35999529      -5.43857606      -9.33600768
H       -1.95416590      -3.68433410      -0.61335466
H       -2.29681435      -0.60053401      -3.61923914
H       -5.38494453      -4.08610011      -4.25820087
H       -3.82522205      -4.93263575      -4.25005904
H        1.12621002      -7.89714517     -11.63791973
H        1.49517599      -4.77463634      -8.61215879
H       -4.26242388      -4.82808797      -9.26740170
H       -3.63125561      -6.49321742      -9.42594815
H       -2.79843987      -5.10192994     -10.21097061
C        3.04484763      -5.99896813     -10.63090718
C        4.18626350      -5.77455625     -10.94909756
Br       6.03183643      -5.41170122     -11.46358449
C       -1.77659986       1.77659986       1.77659986
C       -1.33381554       2.58416324       2.82615203
N       -2.33715876       3.25927371       3.39548850
N       -3.45321231       2.82815342       2.73466955
C       -3.13002482       1.95133282       1.71669139
C       -4.73585550       3.29817944       3.06809884
O       -5.68761551       2.96984176       2.36518510
C       -4.76047873       4.25120991       4.23894288
S       -6.36754475       4.19468193       5.09911098
C       -6.26609800       2.62808507       5.82799667
N       -5.27592030       1.77942018       5.68743060
N       -5.55523322       0.68499466       6.46783046
C       -6.69788699       0.90219424       7.09532868
C       -7.25673942      -0.02258415       8.04019872
S       -8.08542449       0.47154830       9.46106837
C       -8.34785759      -1.14223198       9.96159134
C       -7.78378668      -2.02964762       9.08179890
C       -7.14161537      -1.40107455       7.98701229
N       -7.21497282       2.10410147       6.66270552
C       -8.50862865       2.65630003       6.96965035
H       -0.32764513       2.72356188       3.20064766
H       -3.89885010       1.54079818       1.07693922
H       -4.60881521       5.26513155       3.85529874
H       -3.98531351       4.04236041       4.98024293
H       -8.88712156      -1.35312525      10.87485857
H       -6.62176950      -1.91856250       7.18841213
H       -8.82663776       3.34590520       6.18537058
H       -8.44203690       3.18456130       7.92382298
H       -9.24366130       1.84910215       7.01857697
C       -7.81754536      -3.46168875       9.22917107
C       -7.84581824      -4.66102320       9.35259526
Br      -7.89153311      -6.60024556       9.55216174
C        1.77659986      -1.77659986       1.77659986
C        1.48485692      -2.17724449       3.08202939
N        2.43657787      -2.96836181       3.58698130
N        3.38549479      -3.02559915       2.60494134
C        2.98579166      -2.33634928       1.47590809
C        4.57583282      -3.75559200       2.77070895
O        5.33701829      -3.87142907       1.81419500
C        4.72341263      -4.39818713       4.12903176
S        6.48051429      -4.61376861       4.56705476
C        6.93289531      -2.96328645       4.82599797
N        6.15270363      -1.92057355       4.66949390
N        6.87267302      -0.80781478       5.02757055
C        8.07055159      -1.19805493       5.42680340
C        9.06134530      -0.28720874       5.92579996
S       10.13057138      -0.67466045       7.21280933
C       10.86837929       0.86713292       7.16597059
C       10.28514158       1.66458054       6.21537692
C        9.23844104       1.02141922       5.51053129
N        8.16963360      -2.56126954       5.25087667
C        9.34488793      -3.37689366       5.41279744
H        0.62086407      -1.94091359       3.69007700
H        3.61187667      -2.30984116       0.59486967
H        4.25260327      -5.38566481       4.09097742
H        4.25484162      -3.82228997       4.93078525
H       11.67671544       1.10985992       7.84199937
H        8.63909263       1.47845868       4.73098519
H        9.26975541      -4.28163815       4.80651998
H        9.43822056      -3.64399545       6.46820518
H       10.22079701      -2.82058365       5.06995976
C       10.66977441       3.02464212       5.93989539
C       10.99190440       4.16369370       5.70917960
Br      11.51276136       6.00544376       5.33613170
C       -0.00445707       0.01189536      -1.78238275
H       -0.66409135       0.67374010      -2.43557963
H        0.65740317      -0.63156657      -2.45157240
C       -0.90989263      -0.90692880      -0.91072765
C        0.90977584       0.90977584      -0.90977584
C       -0.00465871       1.77757030       0.00794375
H       -0.66225468       2.44313916      -0.64384735
H        0.64322798       2.43503045       0.67728295
C       -1.78241447       0.00034974      -0.00472694
H       -2.45427497      -0.65498947       0.64260836
H       -2.43311707       0.67328779      -0.65473579
C       -0.91132561       0.90220522       0.91563759
C       -0.01476271      -0.02253852       1.78660255
H       -0.67934791      -0.69751639       2.42135241
H        0.63392994       0.61504881       2.47327442
C        0.01484550      -1.77751727      -0.01636693
H        0.67870853      -2.42144646      -0.68295456
H       -0.62264859      -2.45592969       0.64226336
C        1.78714474       0.01002794       0.00389507
H        2.44202412       0.67113390       0.66197326
H        2.45385902      -0.65136977      -0.64189061
C        0.91606151      -0.90478549       0.90901405
