142
Properties=species:S:1:pos:R:3 pbc="F F F"
C        1.77659986       1.77659986      -1.77659986
C        2.71751659       2.70337645      -1.32323777
N        3.35354155       3.30530502      -2.33307441
N        2.76414260       2.79581060      -3.45608209
C        1.82499229       1.83248672      -3.14057002
C        3.14949641       3.20885623      -4.74378113
O        2.67238893       2.63272567      -5.71752777
C        4.20522542       4.28821041      -4.75719568
S        4.09084499       5.30112218      -6.26937049
C        2.61695444       6.15178460      -5.95344070
N        1.84909500       5.99149226      -4.90218382
N        0.81480896       6.88844755      -5.00480184
C        0.99020484       7.60177041      -6.10343466
C        0.11539895       8.67384873      -6.48510632
S        0.66956380      10.11907650      -7.22940085
C       -0.90516154      10.78261025      -7.28976824
C       -1.82028585       9.93396673      -6.72225708
Br      -3.66404318      10.29439495      -6.56813817
C       -1.24629082       8.73126987      -6.24257406
N        2.09456566       7.11703843      -6.77017572
C        2.55786269       7.49766086      -8.07905547
H        2.98038590       2.96527039      -0.30619837
H        1.28858198       1.30854790      -3.91945763
H        5.18676882       3.80401701      -4.73845967
H        4.13791767       4.96670238      -3.90329679
H       -1.07352474      11.75866513      -7.72371448
H       -1.79070862       7.93484998      -5.74747778
H        3.13787505       6.69013359      -8.52990491
H        3.17956859       8.39076096      -7.98009163
H        1.69764138       7.68813412      -8.72556492
C       -1.77659986      -1.77659986      -1.77659986
C       -2.32601566      -3.00714255      -1.41097260
N       -3.07523267      -3.53012302      -2.38656528
N       -2.95307888      -2.64343855      -3.41951786
C       -2.19566475      -1.54625166      -3.05613262
C       -3.58777610      -2.85867385      -4.65568382
O       -3.54275892      -1.97393467      -5.50594878
C       -4.34340529      -4.16286312      -4.74436310
S       -4.44448322      -4.74831892      -6.46853552
C       -2.79339807      -5.19452992      -6.73425175
N       -1.81337606      -5.05581638      -5.87357864
N       -0.68136334      -5.57877164      -6.44792337
C       -1.00119237      -6.05617566      -7.63804189
C       -0.05910073      -6.72725349      -8.48799977
S       -0.47353325      -8.07255795      -9.47194996
C        1.12461841      -8.23368546     -10.05814990
C        1.95580993      -7.30516667      -9.48658123
Br       3.80015675      -7.15358326      -9.84506343
C        1.29410374      -6.44822469      -8.57343217
N       -2.32685866      -5.77104834      -7.88387280
C       -3.04740712      -5.97345075      -9.11372115
H       -2.22689069      -3.54709536      -0.47786861
H       -2.02876670      -0.73581108      -3.75200972
H       -5.36023225      -3.99236722      -4.37664604
H       -3.89151035      -4.96313198      -4.15327452
H        1.37109810      -9.00362258     -10.77633040
H        1.76982930      -5.65767266      -8.00377577
H       -3.89223919      -5.28527051      -9.18040384
H       -3.40622151      -7.00522314      -9.13897654
H       -2.38537151      -5.76753351      -9.95843540
C       -1.77659986       1.77659986       1.77659986
C       -1.36553416       2.44975257       2.92884408
N       -2.35669288       3.16368046       3.47154764
N       -3.43986601       2.89304783       2.68312144
C       -3.09952852       2.07858586       1.61993466
C       -4.70378279       3.44870024       2.94965075
O       -5.61148804       3.26857681       2.14257752
C       -4.75543975       4.29873958       4.19645218
S       -6.43341259       4.31746858       4.91045649
C       -6.53030362       2.69271357       5.49916255
N       -5.60587493       1.77191517       5.36498098
N       -6.04581672       0.64615962       6.01608200
C       -7.21881557       0.91355790       6.56303645
C       -7.93697852      -0.03208280       7.36945828
S       -8.84771425       0.41510552       8.75522139
C       -9.28877762      -1.20414642       9.08258575
C       -8.72291469      -2.06267328       8.17569656
Br      -8.94113051      -3.93489388       8.19225330
C       -7.93315307      -1.40603084       7.20043088
N       -7.59191388       2.18961016       6.20025577
C       -8.85746885       2.83002305       6.44708712
H       -0.38964677       2.46488470       3.39732319
H       -3.83834763       1.79491171       0.88332816
H       -4.48512661       5.32309030       3.92102859
H       -4.07139527       3.95872537       4.97779620
H       -9.92492190      -1.44054142       9.92447440
H       -7.38765557      -1.90022749       6.40419105
H       -9.04374952       3.60894226       5.70522176
H       -8.83434660       3.26835056       7.44772402
H       -9.65881111       2.09206484       6.36046448
C        1.77659986      -1.77659986       1.77659986
C        1.38085712      -2.40326648       2.96000721
N        2.36663596      -3.13049993       3.49478508
N        3.43308911      -2.91556938       2.66737680
C        3.08487419      -2.12257803       1.59059681
C        4.68771155      -3.50089425       2.91352797
O        5.57565438      -3.37167220       2.07531578
C        4.75197125      -4.31542184       4.18323843
S        6.44935355      -4.36368170       4.84830241
C        6.61115072      -2.72610661       5.38492240
N        5.71032668      -1.78228591       5.25015849
N        6.20221126      -0.65174909       5.85409800
C        7.38280567      -0.93817559       6.37442865
C        8.15208168       0.00858060       7.13085291
S        9.09057270      -0.42517613       8.50229233
C        9.58823962       1.18896162       8.76793895
C        9.02066964       2.03729872       7.85256704
Br       9.29372728       3.90181658       7.80657924
C        8.18320987       1.37651796       6.92086120
N        7.70752269      -2.23487343       6.03938370
C        8.96072189      -2.90550757       6.26834956
H        0.41943874      -2.37545874       3.45695718
H        3.80920921      -1.88277600       0.82460229
H        4.44379250      -5.33878892       3.94666409
H        4.10187267      -3.93242137       4.97362281
H       10.25597322       1.43058650       9.58346817
H        7.62869482       1.86345561       6.12637992
H        9.10189172      -3.71094436       5.54507747
H        8.95487469      -3.31361034       7.28193616
H        9.78026017      -2.19476140       6.13631885
C       -0.00445707       0.01189536      -1.78238275
H       -0.66409135       0.67374010      -2.43557963
H        0.65740317      -0.63156657      -2.45157240
C       -0.90989263      -0.90692880      -0.91072765
C        0.90977584       0.90977584      -0.90977584
C       -0.00465871       1.77757030       0.00794375
H       -0.66225468       2.44313916      -0.64384735
H        0.64322798       2.43503045       0.67728295
C       -1.78241447       0.00034974      -0.00472694
H       -2.45427497      -0.65498947       0.64260836
H       -2.43311707       0.67328779      -0.65473579
C       -0.91132561       0.90220522       0.91563759
C       -0.01476271      -0.02253852       1.78660255
H       -0.67934791      -0.69751639       2.42135241
H        0.63392994       0.61504881       2.47327442
C        0.01484550      -1.77751727      -0.01636693
H        0.67870853      -2.42144646      -0.68295456
H       -0.62264859      -2.45592969       0.64226336
C        1.78714474       0.01002794       0.00389507
H        2.44202412       0.67113390       0.66197326
H        2.45385902      -0.65136977      -0.64189061
C        0.91606151      -0.90478549       0.90901405
