121
Properties=species:S:1:pos:R:3 pbc="F F F"
C        0.00000000       0.00000000       0.00000000
C        0.86669583       0.86669583      -0.86669583
C        1.80761256       1.79347243      -0.41333374
N        2.44363752       2.39540099      -1.42317038
N        1.85423858       1.88590657      -2.54617806
C        0.91508827       0.92258270      -2.23066599
C        2.23959239       2.29895220      -3.83387711
O        1.76248490       1.72282165      -4.80762374
C        3.29532139       3.37830639      -3.84729166
S        3.18094097       4.39121816      -5.35946646
C        1.70705041       5.24188057      -5.04353668
N        0.93919098       5.08158824      -3.99227979
N       -0.09509507       5.97854353      -4.09489781
C        0.08030082       6.69186639      -5.19353064
C       -0.79450508       7.76394470      -5.57520229
S       -0.24034022       9.20917248      -6.31949682
C       -1.81506557       9.87270623      -6.37986422
C       -2.73018988       9.02406271      -5.81235306
Br      -4.57394720       9.38449093      -5.65823414
C       -2.15619484       7.82136584      -5.33267004
N        1.18466163       6.20713441      -5.86027170
C        1.64795867       6.58775684      -7.16915144
H        2.07048188       2.05536636       0.60370565
H        0.37867795       0.39864387      -3.00955360
H        4.27686480       2.89411298      -3.82855565
H        3.22801364       4.05679836      -2.99339277
H       -1.98342876      10.84876111      -6.81381046
H       -2.70061265       7.02494595      -4.83757376
H        2.22797102       5.78022956      -7.62000088
H        2.26966457       7.48085693      -7.07018761
H        0.78773736       6.77823010      -7.81566090
C       -0.86669583      -0.86669583      -0.86669583
C       -1.32639458      -2.14488404      -0.54314012
N       -2.10094794      -2.65625864      -1.50500231
N       -2.08686413      -1.70912947      -2.49032962
C       -1.37061163      -0.59157179      -2.10615354
C       -2.77899638      -1.89295808      -3.70046724
O       -2.83118775      -0.96214664      -4.49959590
C       -3.46639837      -3.23171120      -3.82280987
S       -3.63452854      -3.72733774      -5.56975932
C       -1.97964364      -4.06267373      -5.95015029
N       -0.96071676      -3.91482431      -5.13751794
N        0.16314053      -4.33974351      -5.80174330
C       -0.19819871      -4.76930266      -6.99819647
C        0.72853196      -5.33781347      -7.93536041
S        0.33197089      -6.64920835      -8.97109162
C        1.90013479      -6.68596590      -9.65167377
C        2.71109024      -5.74362747      -9.07368866
Br       4.52076702      -5.46687771      -9.52266718
C        2.05738855      -4.97713872      -8.07809087
N       -1.54936127      -4.54798540      -7.15472107
C       -2.32740975      -4.72430571      -8.35315149
H       -1.14450541      -2.72820397       0.35056679
H       -1.28837785       0.26378860      -2.76228617
H       -4.46814639      -3.14027359      -3.39111344
H       -2.93836648      -4.03562028      -3.30421801
H        2.14640052      -7.40022619     -10.42531713
H        2.52139085      -4.19268604      -7.49061187
H       -3.21086766      -4.08327735      -8.33405646
H       -2.63041478      -5.77211239      -8.41818194
H       -1.72726851      -4.43497793      -9.21938191
C       -0.86669583       0.86669583       0.86669583
C       -0.43584667       1.61350213       1.96506994
N       -1.43432562       2.30622502       2.52165826
N       -2.53846813       1.94754044       1.80031464
C       -2.20860245       1.09896063       0.76077388
C       -3.81420166       2.45623952       2.10198052
O       -4.74854574       2.19509648       1.34928808
C       -3.84924943       3.36265583       3.30901419
S       -5.49118949       3.33821252       4.10222358
C       -5.48143264       1.74130106       4.76973397
N       -4.52049764       0.85896744       4.63359392
N       -4.87441185      -0.25296146       5.35689589
C       -6.03238253      -0.01399078       5.94730609
C       -6.66544661      -0.95156599       6.83076130
S       -7.53156400      -0.48020110       8.23696618
C       -7.87759925      -2.10032171       8.66022734
C       -7.31331838      -2.97478845       7.76769596
Br      -7.43912272      -4.85209180       7.88174695
C       -6.60258567      -2.33045343       6.72570880
N       -6.48360025       1.22419013       5.54427736
C       -7.76600918       1.81642267       5.82243510
H        0.55884024       1.69670819       2.38427463
H       -2.96613054       0.74577172       0.07497317
H       -3.64220394       4.38382525       2.97350424
H       -3.11393106       3.09320449       4.07106923
H       -8.46171354      -2.32472373       9.54215299
H       -6.07122513      -2.83697362       5.92765554
H       -8.02422661       2.54881293       5.05516193
H       -7.71782990       2.30354646       6.79933275
H       -8.53363001       1.03872070       5.80927764
C        0.86669583      -0.86669583       0.86669583
C        0.41987990      -1.70188212       1.89265671
N        1.42506111      -2.36894691       2.46820087
N        2.54481647      -1.90495728       1.83654946
C        2.22404169      -1.01526633       0.82902894
C        3.82969832      -2.35741952       2.18530386
O        4.78792633      -1.99841722       1.50658675
C        3.85062433      -3.33167743       3.33861768
S        5.44019668      -3.26168468       4.22974423
C        5.29588161      -1.71120707       4.98537898
N        4.29268609      -0.87846630       4.84190663
N        4.53692504       0.20606171       5.64748295
C        5.67168615      -0.00177381       6.29223788
C        6.19552201       0.91523231       7.26435222
S        7.00698937       0.40985031       8.69119002
C        7.22975490       2.01850320       9.22625318
C        6.66543109       2.91174238       8.35253718
Br       6.67080345       4.78282965       8.58080407
C        6.05550292       2.29211977       7.23445789
N        6.21917256      -1.18558825       5.84730693
C        7.51709686      -1.71949337       6.16827673
H       -0.59023130      -1.86684055       2.24553334
H        2.99668754      -0.57865888       0.21152901
H        3.72515540      -4.34083317       2.93354486
H        3.05812201      -3.15114187       4.06894089
H        7.74801375       2.22210462      10.15323368
H        5.54084539       2.81484930       6.43591097
H        7.86243336      -2.38824586       5.37752225
H        7.44285198      -2.26673919       7.11111794
H        8.23579572      -0.89993152       6.24590112
