125
Properties=species:S:1:pos:R:3 pbc="F F F"
C        0.00000000       0.00000000       0.00000000
S        1.90622802       4.86923804      -4.91548693
C        3.25153315       4.05544595      -4.34856589
N        3.35444846       3.14733369      -3.33117180
C        2.43512634       2.45631350      -2.53706463
C        1.06359523       2.42958070      -2.72381425
C        0.28021120       1.63366060      -1.88646633
C        0.88335604       0.88335604      -0.88335604
C        2.26513687       0.96316977      -0.74151516
C        3.01367690       0.18963679       0.30379155
N        3.03084259       1.73044524      -1.56378335
N        4.43984798       4.33582881      -5.00782728
C        5.71018194       3.82822981      -4.78237569
O        5.97692013       3.08219068      -3.84365999
C        6.78166762       4.17521954      -5.76127962
C        7.79878137       3.21415509      -5.91849885
C        8.84265078       3.42630869      -6.81708332
Br      10.19124105       2.11832390      -7.01850244
C        8.89722950       4.59512013      -7.56915971
C        7.90185906       5.56057507      -7.41303433
C        6.84748856       5.35945603      -6.51135280
Cl       5.70399380       6.64708987      -6.37182330
H        4.30770853       2.90301363      -3.05918829
H        0.56640016       2.97498094      -3.51173150
H       -0.79442145       1.59944368      -2.03939416
H        4.06843530       0.48284809       0.31942873
H        2.96627903      -0.88273762       0.08926617
H        2.60647955       0.38416025       1.29981111
H        4.31962311       4.99130238      -5.77127642
H        7.76897035       2.29289821      -5.33660700
H        9.71002500       4.76768433      -8.27098993
H        7.96028191       6.47789221      -7.99665212
S       -5.85853986      -3.21132125      -2.62109188
C       -4.48415083      -3.81708334      -3.35431081
N       -3.18505532      -3.40421108      -3.24368756
C       -2.50933188      -2.50506854      -2.41410405
C       -3.04157672      -1.87094425      -1.30446920
C       -2.21791503      -1.05096334      -0.53145976
C       -0.88335604      -0.88335604      -0.88335604
C       -0.41344207      -1.53993261      -2.01644712
C        1.00997886      -1.43113634      -2.47836465
N       -1.21264510      -2.34775737      -2.76466872
N       -4.68593997      -4.90171685      -4.19584725
C       -3.76176319      -5.62249876      -4.93652549
O       -2.57652863      -5.30984755      -5.01639460
C       -4.23432954      -6.85964592      -5.62419132
C       -3.26930043      -7.87152945      -5.79060544
C       -3.60333323      -9.07618268      -6.40652688
Br      -2.29437504     -10.42348883      -6.61020352
C       -4.89615178      -9.29435236      -6.87100520
C       -5.85804892      -8.29428845      -6.72313109
C       -5.53397563      -7.07771591      -6.10660585
Cl      -6.79630445      -5.90083863      -6.02576390
H       -2.53575735      -3.82322172      -3.91093138
H       -4.06433618      -2.00348449      -0.98529193
H       -2.62871476      -0.56339948       0.34769785
H        1.14069074      -1.92665260      -3.44589280
H        1.68022840      -1.91422414      -1.76027949
H        1.30007551      -0.38462506      -2.60627913
H       -5.65517639      -5.19540990      -4.23161562
H       -2.25223314      -7.71532473      -5.43091771
H       -5.16303272     -10.23157110      -7.35409543
H       -6.86383511      -8.46942023      -7.10157090
S       -4.64870053       1.92454869       5.11770376
C       -4.27408649       3.23337006       4.14808843
N       -3.34842276       3.33774343       3.14678776
C       -2.53455621       2.42862650       2.46532176
C       -2.59878363       1.04953906       2.56866749
C       -1.76287245       0.26947720       1.76798848
C       -0.88335604       0.88335604       0.88335604
C       -0.86024693       2.27368696       0.83588791
C        0.04616118       3.03326530      -0.08758199
N       -1.68196316       3.03487014       1.60823789
N       -5.01216104       4.38366314       4.38767989
C       -4.94447774       5.61745206       3.75885765
O       -4.09827270       5.89251131       2.91198679
C       -5.98380960       6.63142292       4.10293427
C       -6.31055762       7.54155443       3.07932326
C       -7.27880424       8.52261305       3.28462550
Br      -7.70783351       9.72690463       1.89332925
C       -7.93379924       8.61987596       4.50783415
C       -7.60973009       7.73162994       5.53410843
C       -6.63655543       6.74139629       5.34034567
Cl      -6.28907413       5.73373519       6.70009766
H       -3.18433515       4.28433836       2.80123694
H       -3.29113659       0.54013621       3.22183979
H       -1.82084563      -0.81281394       1.83638470
H       -0.00898891       4.10780013       0.11506563
H       -0.25091925       2.87210294      -1.12874695
H        1.08739542       2.72872585       0.04949826
H       -5.70505093       4.26032999       5.11682099
H       -5.80629162       7.47710280       2.11508115
H       -8.68924690       9.38424967       4.67520269
H       -8.11860683       7.82398310       6.49223631
S        3.76323082      -5.68416636       2.24355580
C        3.68210746      -4.52679589       3.44664164
N        3.17579723      -3.25722171       3.39993502
C        2.42740618      -2.53386898       2.46722931
C        1.84843652      -3.04868794       1.31986571
C        1.06796200      -2.21254437       0.51983176
C        0.88335604      -0.88335604       0.88335604
C        1.50172738      -0.42551286       2.04258157
C        1.36110092       0.98785146       2.52627268
N        2.25406403      -1.24224711       2.82876004
N        4.19876523      -4.90803457       4.67670427
C        4.27389960      -4.18784740       5.85904044
O        3.95208388      -3.00550833       5.94517858
C        4.72336971      -4.90927699       7.08552008
C        4.20064294      -4.42910152       8.30169086
C        4.54062707      -5.03632286       9.50909285
Br       3.81931499      -4.38093587      11.12781653
C        5.40688301      -6.12438130       9.53024503
C        5.94126767      -6.60147589       8.33272490
C        5.60805716      -5.99830810       7.11193213
Cl       6.37077817      -6.64782904       5.70429977
H        3.38084208      -2.67552533       4.21354304
H        1.94559072      -4.08262747       1.02489441
H        0.60076210      -2.61691020      -0.37325591
H        2.01611638       1.16895644       3.38469472
H        0.33111833       1.18005281       2.84320971
H        1.64433690       1.69807614       1.74456793
H        4.53966040      -5.86235768       4.68018384
H        3.51989182      -3.57776244       8.30082131
H        5.67762013      -6.60183429      10.46924483
H        6.62861757      -7.44542893       8.36077974
