154
Properties=species:S:1:pos:R:3 pbc="F F F"
S        2.81613204       5.77914206      -5.82539095
C        4.16143717       4.96534997      -5.25846991
N        4.26435249       4.05723771      -4.24107582
C        3.34503037       3.36621752      -3.44696865
C        1.97349925       3.33948473      -3.63371827
C        1.19011522       2.54356463      -2.79637035
C        1.79326007       1.79326007      -1.79326007
C        3.17504089       1.87307379      -1.65141919
C        3.92358092       1.09954081      -0.60611247
N        3.94074662       2.64034926      -2.47368738
N        5.34975200       5.24573283      -5.91773131
C        6.62008597       4.73813383      -5.69227972
O        6.88682415       3.99209470      -4.75356401
C        7.69157165       5.08512356      -6.67118364
C        8.70868540       4.12405912      -6.82840287
C        9.75255480       4.33621271      -7.72698734
C        9.80713353       5.50502415      -8.47906374
C        8.81176309       6.47047909      -8.32293835
C        7.75739258       6.26936006      -7.42125682
Cl       6.61389783       7.55699389      -7.28172733
H        5.21761256       3.81291766      -3.96909231
H        1.47630418       3.88488497      -4.42163552
H        0.11548258       2.50934771      -2.94929818
H        4.97833932       1.39275211      -0.59047530
H        3.87618306       0.02716640      -0.82063785
H        3.51638357       1.29406428       0.38990709
H        5.22952713       5.90120641      -6.68118045
H        8.67887438       3.20280224      -6.24651103
H       10.61992902       5.67758836      -9.18089396
H        8.87018594       7.38779623      -8.90655614
C       10.78034142       3.33937232      -7.88049274
C       11.64111271       2.50451849      -8.00905350
Br      13.03290708       1.15463045      -8.21692539
S       -2.90190093      -6.26051573      -5.25824840
C       -4.13996177      -5.14952038      -5.09577490
N       -4.22852297      -4.05930463      -4.27483843
C       -3.33281813      -3.38501322      -3.44038519
C       -1.96951548      -3.61350769      -3.36367909
C       -1.19234432      -2.80767905      -2.53002683
C       -1.79326007      -1.79326007      -1.79326007
C       -3.16946217      -1.62311710      -1.90695460
C       -3.91349732      -0.55495610      -1.16078078
N       -3.92644695      -2.40114195      -2.72719436
N       -5.23931105      -5.35743961      -5.91646549
C       -6.40875703      -4.62016069      -6.02158180
O       -6.67438597      -3.67581755      -5.28227935
C       -7.35668923      -4.97225014      -7.11893949
C       -8.13327222      -3.90920299      -7.61867217
C       -9.04152322      -4.11976492      -8.65446671
C       -9.19759013      -5.38671361      -9.20691767
C       -8.44273070      -6.45075442      -8.71169541
C       -7.52690932      -6.25196361      -7.66913653
Cl      -6.68744465      -7.65484681      -7.11032759
H       -5.14854789      -3.61871181      -4.23236282
H       -1.46641840      -4.37148272      -3.94492355
H       -0.12057197      -2.97511783      -2.47843867
H       -4.99357133      -0.66775068      -1.30024473
H       -3.62864232       0.43519173      -1.53053672
H       -3.71508463      -0.61814786      -0.08730827
H       -5.12625085      -6.15723675      -6.52842639
H       -8.02131556      -2.91056790      -7.19630418
H       -9.90585151      -5.55821888     -10.01434094
H       -8.58137234      -7.44134008      -9.14182589
C       -9.82220562      -3.01965532      -9.15834552
C      -10.47602713      -2.09831353      -9.58034403
Br     -11.53320122      -0.60858178     -10.26267992
S       -6.71586657       4.34201070       3.36278779
C       -5.35913302       4.80289060       4.22323344
N       -4.08486164       4.30935052       4.16845387
C       -3.41293910       3.42113754       3.32413990
C       -3.90714911       2.89819692       2.14135622
C       -3.08674553       2.07493049       1.36837418
C       -1.79326007       1.79326007       1.79326007
C       -1.36127179       2.34134032       2.99692176
C        0.01688075       2.10498451       3.54113044
N       -2.15639999       3.15241680       3.74596647
N       -5.54809518       5.84228557       5.12283539
C       -4.63265114       6.44825979       5.96958859
O       -3.47840958       6.05005608       6.10401720
C       -5.07071688       7.66810387       6.70905811
C       -4.05618416       8.59812038       7.00684285
C       -4.35348198       9.78068560       7.68158727
C       -5.65849101      10.05712357       8.07560684
C       -6.67042245       9.13746108       7.79729700
C       -6.38376716       7.94375619       7.12048611
Cl      -7.71082359       6.86447892       6.87731654
H       -3.45747467       4.63861322       4.90353464
H       -4.89475128       3.12132728       1.76674611
H       -3.46650086       1.67463850       0.43298910
H        0.11221588       2.52681969       4.54696292
H        0.76486681       2.58599949       2.90285463
H        0.22931094       1.03487946       3.61497224
H       -6.49650902       6.19924613       5.11615884
H       -3.02892542       8.39563751       6.70362472
H       -5.89703029      10.97738925       8.60399179
H       -7.68652315       9.35679756       8.12121760
C       -3.30480643      10.72403527       7.97136477
C       -2.42654066      11.51409061       8.21405342
Br      -1.00645918      12.79154329       8.60646045
S        6.72028453      -4.32669218       3.37368836
C        5.36176601      -4.79769606       4.22579499
N        4.08550916      -4.30972895       4.16742792
C        3.41338181      -3.42073038       3.32410435
C        3.91058101      -2.89012486       2.14599638
C        3.08994796      -2.06707584       1.37302641
C        1.79326007      -1.79326007       1.79326007
C        1.35830127      -2.34881650       2.99241610
C       -0.02338863      -2.12124757       3.53137527
N        2.15371282      -3.15968143       3.74138902
N        5.55138375      -5.84033032       5.12150207
C        4.63487299      -6.45434941       5.96127713
O        3.47821717      -6.06203625       6.09222945
C        5.07514673      -7.67555856       6.69717356
C        4.06353916      -8.61154916       6.98605908
C        4.36317237      -9.79582581       7.65675667
C        5.66762343     -10.06810995       8.05548803
C        6.67658838      -9.14257430       7.78601785
C        6.38755586      -7.94710017       7.11335343
Cl       7.71074732      -6.86067641       6.88119532
H        3.45629069      -4.64521624       4.89811559
H        4.90089432      -3.10702779       1.77490256
H        3.47212828      -1.66077248       0.44122770
H       -0.12137737      -2.54811891       4.53482519
H       -0.76624235      -2.60273968       2.88748998
H       -0.24105589      -1.05247252       3.60912413
H        6.50144427      -6.19292578       5.11754394
H        3.03675726      -8.41236752       6.67906285
H        5.90796488     -10.98968983       8.58075662
H        7.69219527      -9.35875497       8.11358807
C        3.31752032     -10.74526835       7.93741779
C        2.44178674     -11.54042648       8.17247148
Br       1.02579959     -12.82612992       8.55253341
C       -0.00445707       0.01189536      -1.78238275
H       -0.66409135       0.67374010      -2.43557963
H        0.65740317      -0.63156657      -2.45157240
C       -0.90989263      -0.90692880      -0.91072765
C        0.90977584       0.90977584      -0.90977584
C       -0.00465871       1.77757030       0.00794375
H       -0.66225468       2.44313916      -0.64384735
H        0.64322798       2.43503045       0.67728295
C       -1.78241447       0.00034974      -0.00472694
H       -2.45427497      -0.65498947       0.64260836
H       -2.43311707       0.67328779      -0.65473579
C       -0.91132561       0.90220522       0.91563759
C       -0.01476271      -0.02253852       1.78660255
H       -0.67934791      -0.69751639       2.42135241
H        0.63392994       0.61504881       2.47327442
C        0.01484550      -1.77751727      -0.01636693
H        0.67870853      -2.42144646      -0.68295456
H       -0.62264859      -2.45592969       0.64226336
C        1.78714474       0.01002794       0.00389507
H        2.44202412       0.67113390       0.66197326
H        2.45385902      -0.65136977      -0.64189061
C        0.91606151      -0.90478549       0.90901405
