133
Properties=species:S:1:pos:R:3 pbc="F F F"
C        0.00000000       0.00000000       0.00000000
S        1.90622802       4.86923804      -4.91548693
C        3.25153315       4.05544595      -4.34856589
N        3.35444846       3.14733369      -3.33117180
C        2.43512634       2.45631350      -2.53706463
C        1.06359523       2.42958070      -2.72381425
C        0.28021120       1.63366060      -1.88646633
C        0.88335604       0.88335604      -0.88335604
C        2.26513687       0.96316977      -0.74151516
C        3.01367690       0.18963679       0.30379155
N        3.03084259       1.73044524      -1.56378335
N        4.43984798       4.33582881      -5.00782728
C        5.71018194       3.82822981      -4.78237569
O        5.97692013       3.08219068      -3.84365999
C        6.78166762       4.17521954      -5.76127962
C        7.79878137       3.21415509      -5.91849885
C        8.84265078       3.42630869      -6.81708332
C        8.89722950       4.59512013      -7.56915971
C        7.90185906       5.56057507      -7.41303433
C        6.84748856       5.35945603      -6.51135280
Cl       5.70399380       6.64708987      -6.37182330
H        4.30770853       2.90301363      -3.05918829
H        0.56640016       2.97498094      -3.51173150
H       -0.79442145       1.59944368      -2.03939416
H        4.06843530       0.48284809       0.31942873
H        2.96627903      -0.88273762       0.08926617
H        2.60647955       0.38416025       1.29981111
H        4.31962311       4.99130238      -5.77127642
H        7.76897035       2.29289821      -5.33660700
H        9.71002500       4.76768433      -8.27098993
H        7.96028191       6.47789221      -7.99665212
C        9.87043739       2.42946829      -6.97058871
C       10.73120868       1.59461446      -7.09914948
Br      12.12300305       0.24472643      -7.30702137
S       -2.89171524      -2.91135031      -5.88788743
C       -3.70284792      -3.43074936      -4.52194770
N       -3.40820191      -3.22185608      -3.20289596
C       -2.49489479      -2.41551650      -2.51809318
C       -1.69683202      -1.43603191      -3.08412624
C       -0.88224774      -0.66213439      -2.25595600
C       -0.88335604      -0.88335604      -0.88335604
C       -1.70011827      -1.89056552      -0.37913800
C       -1.77982863      -2.20542464       1.08573113
N       -2.50238192      -2.63848769      -1.18420158
N       -4.84686175      -4.18010351      -4.75653881
C       -5.72902320      -4.74405917      -3.84770508
O       -5.54296444      -4.72617421      -2.63363215
C       -6.98122504      -5.35544959      -4.38149216
C       -8.09376495      -5.31860533      -3.51906503
C       -9.31952650      -5.84728475      -3.91923153
C       -9.46009235      -6.42449338      -5.17692361
C       -8.36154061      -6.47820270      -6.03572514
C       -7.12295594      -5.95114841      -5.64419304
Cl      -5.82755592      -6.12054113      -6.77480992
H       -3.95726984      -3.77185811      -2.54078250
H       -1.69472031      -1.21712262      -4.14126967
H       -0.26569514       0.11651250      -2.69523376
H       -2.38661818      -3.10079954       1.25556307
H       -2.24567538      -1.37618982       1.62758997
H       -0.78611342      -2.40217743       1.49746216
H       -5.04748023      -4.29106940      -5.74365229
H       -7.99906337      -4.86867822      -2.53073398
H      -10.41347425      -6.84041999      -5.49480502
H       -8.47807486      -6.94364222      -7.01310916
C      -10.44878501      -5.79443178      -3.02727761
C      -11.39453900      -5.75016742      -2.28026620
Br     -12.92374322      -5.67859570      -1.07241193
S       -5.76452100       2.36563935       3.56079263
C       -4.53733445       3.49881255       3.61939799
N       -3.24409534       3.40410137       3.18475724
C       -2.53121525       2.47356192       2.42372730
C       -3.07477697       1.39467545       1.74753776
C       -2.23994861       0.59132578       0.96906374
C       -0.88335604       0.88335604       0.88335604
C       -0.39828654       1.97526900       1.59626626
C        1.04639919       2.37940934       1.56651198
N       -1.21285678       2.76524388       2.34697053
N       -4.87817251       4.71814976       4.18718179
C       -4.09732889       5.84826920       4.37518935
O       -2.89462406       5.88067097       4.12747577
C       -4.77328987       7.08856533       4.85631158
C       -4.19333705       8.30124519       4.43685308
C       -4.74992643       9.52186062       4.81425574
C       -5.88562913       9.55944971       5.61643050
C       -6.46215194       8.36450010       6.04881642
C       -5.91078093       7.13039901       5.67711744
Cl      -6.68504603       5.72347087       6.31439008
H       -2.63028159       4.16775704       3.47187183
H       -4.12790885       1.15802110       1.76718265
H       -2.66566912      -0.24729158       0.42603886
H        1.23623586       3.18629336       2.28179717
H        1.31869924       2.74256685       0.57040763
H        1.69213678       1.54103495       1.84193052
H       -5.84968357       4.76009842       4.47241992
H       -3.30364097       8.28762948       3.80720512
H       -6.32407211      10.50867997       5.91594718
H       -7.34333138       8.40437901       6.68711584
C       -4.14809021      10.75234224       4.37006195
C       -3.64405237      11.78287061       3.99804965
Br      -2.82906582      13.44914781       3.39653722
S        3.48442953      -2.41648472       5.79003873
C        3.91065164      -3.30488512       4.44000822
N        3.39810209      -3.26204850       3.17280337
C        2.51260198      -2.41438587       2.50151661
C        2.01578872      -1.21606406       2.98513740
C        1.19179112      -0.44302567       2.16552134
C        0.88335604      -0.88335604       0.88335604
C        1.40595598      -2.10198461       0.46188121
C        1.13965586      -2.66362590      -0.90375963
N        2.21773980      -2.85129046       1.25604092
N        4.93887344      -4.21764573       4.62698490
C        5.51728333      -5.08782089       3.71568323
O        5.09900848      -5.23378864       2.56997367
C        6.73228664      -5.83947192       4.14640823
C        7.64157948      -6.16742010       3.12243575
C        8.81810531      -6.85594983       3.41198765
C        9.10885156      -7.23406689       4.71859089
C        8.20956892      -6.92579135       5.74010819
C        7.02210482      -6.23485679       5.46133578
Cl       5.96764330      -5.95434767       6.80091600
H        3.70610618      -4.01179516       2.55200911
H        2.26012724      -0.82980040       3.96318496
H        0.81198460       0.50426849       2.53670029
H        1.54437145      -3.67729861      -0.98981540
H        1.61868028      -2.04458823      -1.66899328
H        0.06534027      -2.72395430      -1.09846588
H        5.31071713      -4.20192920       5.56955558
H        7.42772282      -5.87695520       2.09379755
H       10.02447907      -7.77306783       4.95115236
H        8.43978068      -7.23739009       6.75765547
C        9.74031646      -7.17662863       2.35354931
C       10.51266829      -7.44519712       1.46710721
Br      11.76149589      -7.87944966       0.03380530
