190
Properties=species:S:1:pos:R:3 pbc="F F F"
C        0.51172791       5.69841200      -9.35166049
C        0.09726421       5.05234911      -8.04388575
O        0.81324206       5.65009999      -6.95272446
C        2.01817189       5.07418426      -6.64402424
O        2.48648069       4.10465611      -7.22807326
C        2.60428709       5.76953865      -5.44488204
N        3.92801940       5.26834776      -5.12037531
N        4.97871461       5.94099356      -5.63699994
C        6.06723501       5.33669920      -5.14316236
C        5.67765751       4.29264742      -4.26691349
C        4.29092974       4.27254819      -4.23611114
C        3.40949229       3.42459710      -3.41951646
C        3.80213881       3.08298954      -2.11389209
C        3.00349534       2.26714023      -1.30478924
C        1.79110489       1.79110489      -1.79110489
C        1.38505374       2.10531202      -3.08346969
C        2.20107981       2.90116292      -3.89707335
C        7.42162934       5.78286342      -5.49728625
C        8.55970549       5.18935942      -4.92916274
C        9.84418822       5.62912612      -5.27158580
C       10.00105657       6.66727470      -6.18643255
C        8.88748866       7.27026204      -6.76256094
C        7.60602265       6.82855384      -6.41803339
H       -0.05909748       5.28389559     -10.18737071
H        1.57813759       5.54486903      -9.54464099
H        0.34698667       6.78027058      -9.31377219
H        0.23778644       3.96563008      -8.07158422
H       -0.96762116       5.23194938      -7.86368058
H        1.95819089       5.63890785      -4.57316058
H        2.69809270       6.84012708      -5.65911946
H        6.32491171       3.63388902      -3.70643920
H        4.74271188       3.44997939      -1.70703305
H        3.33964077       2.01173264      -0.30350976
H        0.44624607       1.72370103      -3.47785893
H        1.87816881       3.06696001      -4.91827803
H        8.47076386       4.37842161      -4.21194362
H       10.71094705       5.15467200      -4.81885617
H        8.99868965       8.08060328      -7.47785372
H        6.74380274       7.30949764      -6.87717971
C       11.32254165       7.11894775      -6.53752888
C       12.42928541       7.49722393      -6.83157205
Br      14.21879646       8.10886451      -7.30701500
C       -0.30333471      -8.98660516      -6.27186052
C       -0.04823418      -7.95799680      -5.18726810
O       -1.25220760      -7.72168771      -4.44217121
C       -2.07074976      -6.73612816      -4.92950246
O       -1.82444942      -6.06835187      -5.92640877
C       -3.24581541      -6.56868714      -4.00420523
N       -4.20283416      -5.60178542      -4.51212290
N       -5.23553458      -6.08688747      -5.23428605
C       -5.99997106      -5.02533192      -5.52179358
C       -5.44744606      -3.86363776      -4.92613460
C       -4.29873800      -4.24978937      -4.25106170
C       -3.41361653      -3.42674115      -3.41324817
C       -3.97024984      -2.40838265      -2.62038794
C       -3.16661980      -1.59054450      -1.81826050
C       -1.79110489      -1.79110489      -1.79110489
C       -1.21440641      -2.78453614      -2.57489290
C       -2.02162321      -3.58270804      -3.39498483
C       -7.22602489      -5.15463376      -6.32112036
C       -8.05896212      -4.05197940      -6.56728613
C       -9.22761273      -4.19149213      -7.32579528
C       -9.57300239      -5.43658340      -7.84517802
C       -8.76243697      -6.54350011      -7.61437456
C       -7.59600027      -6.40047656      -6.85613304
H        0.61691326      -9.21021009      -6.81887199
H       -1.05585377      -8.62972393      -6.98206991
H       -0.68977755      -9.91426033      -5.83699156
H        0.35749774      -7.02878788      -5.60371059
H        0.69454815      -8.34203957      -4.48051739
H       -2.91132489      -6.24282473      -3.01610969
H       -3.76517461      -7.52839325      -3.90377139
H       -5.84073583      -2.85827818      -4.96622592
H       -5.04517994      -2.23688517      -2.61765923
H       -3.62561471      -0.80446811      -1.22480035
H       -0.13777889      -2.93749777      -2.57252937
H       -1.52522639      -4.30000682      -4.03817365
H       -7.81776909      -3.06805205      -6.17530795
H       -9.85740138      -3.32364709      -7.50342675
H       -9.02236273      -7.51932331      -8.01546061
H       -6.97110766      -7.27536389      -6.68400853
C      -10.77531670      -5.57892087      -8.62478071
C      -11.78225493      -5.69812849      -9.27769796
Br     -13.41038889      -5.89087714     -10.33340994
C       -9.34790416       5.70480813       0.50908811
C       -8.26727390       4.67197258       0.25425260
O       -7.90715274       4.02493713       1.48397664
C       -6.90706549       4.62628798       2.20302691
O       -6.32385887       5.64431675       1.85103444
C       -6.60532651       3.79357953       3.41980174
N       -5.61654485       4.42348982       4.27670780
N       -6.08324896       5.18113831       5.29232084
C       -4.99755090       5.58464065       5.96490501
C       -3.83552756       5.02719438       5.37449648
C       -4.24681808       4.25431683       4.29845415
C       -3.42666181       3.41243029       3.41451376
C       -2.32499138       2.72353799       3.95049107
C       -1.50731265       1.92229133       3.14582082
C       -1.79110489       1.79110489       1.79110489
C       -2.86860061       2.47118263       1.23405221
C       -3.66766789       3.29178549       2.03986270
C       -5.10300877       6.45422358       7.14454666
C       -3.96935303       6.82368558       7.88518905
C       -4.08584418       7.64816023       9.01089573
C       -5.33876781       8.11064482       9.40535119
C       -6.47629463       7.75770504       8.68631198
C       -6.35618692       6.93386357       7.56255939
H       -9.66446584       6.17427739      -0.42657441
H       -8.99283768       6.48445798       1.19035196
H      -10.21859188       5.23957927       0.98285829
H       -7.39501582       5.11766409      -0.23767917
H       -8.64901097       3.89471973      -0.41572191
H       -6.23589169       2.80767483       3.12669279
H       -7.52190950       3.66824160       4.00718814
H       -2.81248247       5.15608331       5.69667414
H       -2.08691666       2.80312856       5.00967911
H       -0.65633217       1.41096054       3.58759046
H       -3.08798367       2.38756527       0.17225709
H       -4.45580552       3.85443998       1.55316135
H       -2.97848367       6.47870861       7.60393681
H       -3.19413540       7.92118250       9.56915731
H       -7.45853079       8.11350559       8.98511026
H       -7.25496972       6.66621170       7.00929867
C       -5.45737519       8.95819088      10.56345220
C       -5.55670887       9.66801071      11.53336180
Br      -5.71732304      10.81572934      13.10162358
C        9.88678340      -1.05763158       4.61738541
C        8.56249635      -0.55476955       4.07623318
O        7.48291132      -1.05212690       4.88102830
C        6.96794783      -2.26500112       4.50343144
O        7.36565326      -2.91151232       3.54204448
C        5.80926639      -2.60946512       5.39997627
N        5.27482957      -3.92886423       5.11304867
N        5.75081737      -4.95392744       5.85196330
C        5.06303802      -6.03156657       5.45249197
C        4.10995531      -5.65384580       4.47341731
C        4.23456248      -4.28597876       4.27904783
C        3.42130762      -3.40906354       3.42323469
C        2.04654468      -3.66705073       3.28542502
C        1.23538733      -2.86901880       2.47101867
C        1.79110489      -1.79110489       1.79110489
C        3.15080893      -1.52132164       1.90170488
C        3.96185780      -2.33932859       2.69812968
C        5.31534842      -7.36069440       6.02573619
C        4.55013902      -8.47639083       5.65169780
C        4.79804241      -9.73586649       6.21099124
C        5.81482959      -9.88995063       7.14998359
C        6.58635890      -8.79835014       7.53560260
C        6.33579018      -7.54179685       6.97502284
H       10.72173897      -0.64965979       4.04077006
H        9.93604464      -2.15047434       4.58112863
H       10.00709033      -0.76756368       5.66637542
H        8.43427766      -0.82022073       3.02050235
H        8.52899409       0.53789117       4.13690588
H        5.00707559      -1.87583918       5.28734455
H        6.14714743      -2.60777117       6.44242065
H        3.39966079      -6.29438288       3.97119625
H        1.58598380      -4.49976255       3.81397798
H        0.17795036      -3.10062937       2.37630343
H        3.59700664      -0.69040885       1.36039054
H        5.02591479      -2.13349493       2.70399714
H        3.74951241      -8.38879313       4.92282354
H        4.19262733     -10.58555613       5.90629176
H        7.38248240      -8.90769802       8.26696623
H        6.94784465      -6.69666564       7.28596981
C        6.06860317     -11.18564191       7.72477319
C        6.28113855     -12.27078335       8.20615949
Br       6.62479027     -14.02536529       8.98452041
C       -0.00445707       0.01189536      -1.78238275
H       -0.66409135       0.67374010      -2.43557963
H        0.65740317      -0.63156657      -2.45157240
C       -0.90989263      -0.90692880      -0.91072765
C        0.90977584       0.90977584      -0.90977584
C       -0.00465871       1.77757030       0.00794375
H       -0.66225468       2.44313916      -0.64384735
H        0.64322798       2.43503045       0.67728295
C       -1.78241447       0.00034974      -0.00472694
H       -2.45427497      -0.65498947       0.64260836
H       -2.43311707       0.67328779      -0.65473579
C       -0.91132561       0.90220522       0.91563759
C       -0.01476271      -0.02253852       1.78660255
H       -0.67934791      -0.69751639       2.42135241
H        0.63392994       0.61504881       2.47327442
C        0.01484550      -1.77751727      -0.01636693
H        0.67870853      -2.42144646      -0.68295456
H       -0.62264859      -2.45592969       0.64226336
C        1.78714474       0.01002794       0.00389507
H        2.44202412       0.67113390       0.66197326
H        2.45385902      -0.65136977      -0.64189061
C        0.91606151      -0.90478549       0.90901405
