182
Properties=species:S:1:pos:R:3 pbc="F F F"
C        0.51172791       5.69841200      -9.35166049
C        0.09726421       5.05234911      -8.04388575
O        0.81324206       5.65009999      -6.95272446
C        2.01817189       5.07418426      -6.64402424
O        2.48648069       4.10465611      -7.22807326
C        2.60428709       5.76953865      -5.44488204
N        3.92801940       5.26834776      -5.12037531
N        4.97871461       5.94099356      -5.63699994
C        6.06723501       5.33669920      -5.14316236
C        5.67765751       4.29264742      -4.26691349
C        4.29092974       4.27254819      -4.23611114
C        3.40949229       3.42459710      -3.41951646
C        3.80213881       3.08298954      -2.11389209
C        3.00349534       2.26714023      -1.30478924
C        1.79110489       1.79110489      -1.79110489
C        1.38505374       2.10531202      -3.08346969
C        2.20107981       2.90116292      -3.89707335
C        7.42162934       5.78286342      -5.49728625
C        8.55970549       5.18935942      -4.92916274
C        9.84418822       5.62912612      -5.27158580
C       10.00105657       6.66727470      -6.18643255
Br      11.73539928       7.26005919      -6.64721819
C        8.88748866       7.27026204      -6.76256094
C        7.60602265       6.82855384      -6.41803339
H       -0.05909748       5.28389559     -10.18737071
H        1.57813759       5.54486903      -9.54464099
H        0.34698667       6.78027058      -9.31377219
H        0.23778644       3.96563008      -8.07158422
H       -0.96762116       5.23194938      -7.86368058
H        1.95819089       5.63890785      -4.57316058
H        2.69809270       6.84012708      -5.65911946
H        6.32491171       3.63388902      -3.70643920
H        4.74271188       3.44997939      -1.70703305
H        3.33964077       2.01173264      -0.30350976
H        0.44624607       1.72370103      -3.47785893
H        1.87816881       3.06696001      -4.91827803
H        8.47076386       4.37842161      -4.21194362
H       10.71094705       5.15467200      -4.81885617
H        8.99868965       8.08060328      -7.47785372
H        6.74380274       7.30949764      -6.87717971
C       -0.24578284      -8.84895643      -6.46706112
C        0.01099021      -7.83925727      -5.36523202
O       -1.18063298      -7.64718708      -4.58824645
C       -2.03188219      -6.66994021      -5.03455798
O       -1.82337255      -5.97462960      -6.02120791
C       -3.18896111      -6.55006519      -4.07968149
N       -4.17866984      -5.59416862      -4.54390400
N       -5.21650331      -6.08648128      -5.25372353
C       -6.01080862      -5.03650209      -5.49978585
C       -5.47089592      -3.87608129      -4.89024121
C       -4.29874210      -4.25087849      -4.24996848
C       -3.41331517      -3.42674269      -3.41354800
C       -3.97429371      -2.43930880      -2.58541792
C       -3.17101511      -1.62144436      -1.78296533
C       -1.79110489      -1.79110489      -1.79110489
C       -1.21042068      -2.75336863      -2.61004615
C       -2.01813331      -3.55125776      -3.42992501
C       -7.25160029      -5.17588795      -6.27429077
C       -8.11434493      -4.08731759      -6.47656513
C       -9.29660285      -4.23650966      -7.21178763
C       -9.62588291      -5.47725857      -7.75162232
Br     -11.22220884      -5.67715726      -8.74331057
C       -8.78575427      -6.57025697      -7.56430039
C       -7.60579361      -6.41760044      -6.82921583
H        0.66649838      -9.03922794      -7.03943927
H       -1.02209852      -8.49358521      -7.15196388
H       -0.60139448      -9.79466790      -6.04496707
H        0.38626709      -6.89196376      -5.76930407
H        0.77810142      -8.22192127      -4.68418895
H       -2.83935585      -6.23878729      -3.09211617
H       -3.68434126      -7.52338099      -3.98961700
H       -5.88734078      -2.87931844      -4.89858070
H       -5.05244139      -2.29250089      -2.55478205
H       -3.63377275      -0.85949428      -1.16161614
H       -0.13087391      -2.88172505      -2.63520707
H       -1.52066333      -4.24250141      -4.10024212
H       -7.88628774      -3.10713455      -6.06770680
H       -9.94949671      -3.37952065      -7.35545786
H       -9.03292347      -7.54256438      -7.98165879
H       -6.95776183      -7.28161701      -6.69110124
C       -9.49185604       5.45053374       0.61941061
C       -8.38926053       4.44169566       0.36254289
O       -7.97582148       3.84117308       1.59907196
C       -6.97372476       4.49124428       2.27141134
O       -6.43058658       5.51468378       1.87393969
C       -6.61358157       3.70317350       3.50195272
N       -5.61971336       4.38547348       4.31155563
N       -6.07936103       5.15885964       5.31848744
C       -4.98727939       5.61231421       5.94750296
C       -3.82668648       5.07100810       5.33952384
C       -4.24557590       4.25581365       4.29819952
C       -3.42659115       3.41208841       3.41492628
C       -2.29061713       2.77052389       3.93787942
C       -1.47304877       1.96964234       3.13273369
C       -1.79110489       1.79110489       1.79110489
C       -2.90326365       2.42393241       1.24663940
C       -3.70276705       3.24471381       2.05183522
C       -5.08459728       6.51253438       7.10464735
C       -3.94168171       6.93531408       7.80123186
C       -4.05023628       7.78858116       8.90608270
C       -5.30443274       8.22672914       9.32360193
Br      -5.44935585       9.37798682      10.81533400
C       -6.45108610       7.82097737       8.64824817
C       -6.33888112       6.96850212       7.54522664
H       -9.84828588       5.88342787      -0.31954492
H       -9.14050721       6.25941366       1.26772674
H      -10.33488478       4.97485231       1.13129235
H       -7.54460771       4.89737161      -0.16697859
H       -8.76700845       3.63478503      -0.27378467
H       -6.22404406       2.71999839       3.22621686
H       -7.50914767       3.56911195       4.11907962
H       -2.79912362       5.23810400       5.62801230
H       -2.02509762       2.88761283       4.98701388
H       -0.59539105       1.49566045       3.56383167
H       -3.15006342       2.30327278       0.19446983
H       -4.52039844       3.77044667       1.57256174
H       -2.94954217       6.61046013       7.50112678
H       -3.15141959       8.10284882       9.43020681
H       -7.43441835       8.15740088       8.96532741
H       -7.24478088       6.65954593       7.02615327
C        9.88469280      -1.05454265       4.62256494
C        8.56042848      -0.55213986       4.08093074
O        7.48066370      -1.05060238       4.88480043
C        6.96663352      -2.26355661       4.50619026
O        7.36528196      -2.90927024       3.54465786
C        5.80762884      -2.60922606       5.40185288
N        5.27413466      -3.92876976       5.11383805
N        5.75029046      -4.95398706       5.85243059
C        5.06337795      -6.03179477       5.45192385
C        4.11064809      -5.65405854       4.47251179
C        4.23456656      -4.28600484       4.27901766
C        3.42129930      -3.40906468       3.42324187
C        2.04676904      -3.66777712       3.28447428
C        1.23562129      -2.86974328       2.47006023
C        1.79110489      -1.79110489       1.79110489
C        3.15058530      -1.52058926       1.90266089
C        3.96164683      -2.33858762       2.69908163
C        5.31613199      -7.36111054       6.02453648
C        4.55179687      -8.47703585       5.64939493
C        4.80011122      -9.73669388       6.20809504
C        5.81643780      -9.89073267       7.14759334
Br       6.15005050     -11.59146983       7.90115633
C        6.58710018      -8.79890637       7.53430508
C        6.33612297      -7.54217153       6.97431538
H       10.71974684      -0.64574301       4.04667898
H        9.93461654      -2.14733487       4.58569620
H       10.00421432      -0.76501982       5.67179530
H        8.43298471      -0.81704666       3.02496936
H        8.52624951       0.54046523       4.14222453
H        5.00507388      -1.87600471       5.28918072
H        6.14489744      -2.60794565       6.44449616
H        3.40102418      -6.29471725       3.96949849
H        1.58638697      -4.50106889       3.81226848
H        0.17837614      -3.10191831       2.37458872
H        3.59661274      -0.68909745       1.36209584
H        5.02557923      -2.13213347       2.70569415
H        3.75154657      -8.38948001       4.92010250
H        4.19537361     -10.58655948       5.90254213
H        7.38285867      -8.90821649       8.26607148
H        6.94749897      -6.69686413       7.28611699
C       -0.00445707       0.01189536      -1.78238275
H       -0.66409135       0.67374010      -2.43557963
H        0.65740317      -0.63156657      -2.45157240
C       -0.90989263      -0.90692880      -0.91072765
C        0.90977584       0.90977584      -0.90977584
C       -0.00465871       1.77757030       0.00794375
H       -0.66225468       2.44313916      -0.64384735
H        0.64322798       2.43503045       0.67728295
C       -1.78241447       0.00034974      -0.00472694
H       -2.45427497      -0.65498947       0.64260836
H       -2.43311707       0.67328779      -0.65473579
C       -0.91132561       0.90220522       0.91563759
C       -0.01476271      -0.02253852       1.78660255
H       -0.67934791      -0.69751639       2.42135241
H        0.63392994       0.61504881       2.47327442
C        0.01484550      -1.77751727      -0.01636693
H        0.67870853      -2.42144646      -0.68295456
H       -0.62264859      -2.45592969       0.64226336
C        1.78714474       0.01002794       0.00389507
H        2.44202412       0.67113390       0.66197326
H        2.45385902      -0.65136977      -0.64189061
C        0.91606151      -0.90478549       0.90901405
