169
Properties=species:S:1:pos:R:3 pbc="F F F"
C        0.00000000       0.00000000       0.00000000
C       -0.39817612       4.78850797      -8.44175647
C       -0.81263981       4.14244509      -7.13398173
O       -0.09666196       4.74019596      -6.04282044
C        1.10826786       4.16428024      -5.73412021
O        1.57657666       3.19475209      -6.31816923
C        1.69438307       4.85963462      -4.53497802
N        3.01811538       4.35844374      -4.21047128
N        4.06881059       5.03108954      -4.72709592
C        5.15733098       4.42679517      -4.23325834
C        4.76775349       3.38274339      -3.35700946
C        3.38102571       3.36264416      -3.32620712
C        2.49958826       2.51469307      -2.50961244
C        2.89223479       2.17308551      -1.20398807
C        2.09359132       1.35723620      -0.39488521
C        0.88120087       0.88120087      -0.88120087
C        0.47514971       1.19540800      -2.17356567
C        1.29117579       1.99125889      -2.98716932
C        6.51172532       4.87295939      -4.58738223
C        7.64980147       4.27945540      -4.01925871
C        8.93428420       4.71922210      -4.36168177
C        9.09115254       5.75737067      -5.27652852
C        7.97758464       6.36035802      -5.85265691
C        6.69611863       5.91864981      -5.50812936
H       -0.96900150       4.37399157      -9.27746668
H        0.66823357       4.63496501      -8.63473697
H       -0.56291736       5.87036656      -8.40386817
H       -0.67211759       3.05572606      -7.16168019
H       -1.87752519       4.32204536      -6.95377656
H        1.04828686       4.72900382      -3.66325655
H        1.78818868       5.93022306      -4.74921544
H        5.41500768       2.72398499      -2.79653517
H        3.83280786       2.54007537      -0.79712903
H        2.42973674       1.10182862       0.60639427
H       -0.46365795       0.81379700      -2.56795491
H        0.96826479       2.15705599      -4.00837401
H        7.56085984       3.46851758      -3.30203959
H        9.80104302       4.24476798      -3.90895214
H        8.08878563       7.17069925      -6.56794969
H        5.83389871       6.39959361      -5.96727569
C       10.41263763       6.20904372      -5.62762485
C       11.51938138       6.58731990      -5.92166803
Br      13.30889243       7.19896049      -6.39711097
C       -9.40638400      -1.75655635      -1.66914798
C       -8.11998479      -1.04330735      -1.30049486
O       -7.21438567      -1.05781184      -2.41415693
C       -6.37779956      -2.14111109      -2.48775766
O       -6.36270644      -3.05476578      -1.67202577
C       -5.45380864      -1.97162872      -3.66355835
N       -4.60090765      -3.13125070      -3.85487205
N       -5.03296970      -4.06968788      -4.72433846
C       -4.05589642      -4.98426709      -4.77722098
C       -2.97664885      -4.57826700      -3.95259049
C       -3.32582488      -3.36384559      -3.38020653
C       -2.51445364      -2.49947654      -2.50996360
C       -1.13003208      -2.40553894      -2.73373735
C       -0.31529065      -1.60741241      -1.92300967
C       -0.88120087      -0.88120087      -0.88120087
C       -2.24665773      -0.96567001      -0.63179564
C       -3.05237750      -1.78630097      -1.43092553
C       -4.17031225      -6.18386537      -5.61788932
C       -3.11921117      -7.10842360      -5.72088081
C       -3.24020690      -8.24416561      -6.53081555
C       -4.41513167      -8.46485466      -7.24506541
C       -5.47026641      -7.56226182      -7.15807133
C       -5.34581369      -6.42882938      -6.34825473
H      -10.12378779      -1.71389265      -0.84477631
H       -9.21661025      -2.80606050      -1.91526479
H       -9.85858140      -1.29801090      -2.55472507
H       -7.66364932      -1.47797085      -0.40366850
H       -8.33104707       0.00689763      -1.07414728
H       -4.82068155      -1.09106432      -3.52880137
H       -6.04933738      -1.84376823      -4.57452157
H       -2.04166751      -5.09663369      -3.79722666
H       -0.66430451      -2.95756037      -3.54814738
H        0.75345191      -1.56405019      -2.11457281
H       -2.69509788      -0.41416987       0.19117379
H       -4.09839536      -1.87410699      -1.16119243
H       -2.18986425      -6.96423146      -5.17732130
H       -2.41311507      -8.94638128      -6.59526679
H       -6.39152714      -7.72521861      -7.71068882
H       -6.17987207      -5.73137514      -6.28952081
C       -4.53826628      -9.63304147      -8.07799845
C       -4.64139152     -10.61139792      -8.77557987
Br      -4.80813631     -12.19331755      -9.90351003
C       -4.95002594      -0.46268284       8.34474522
C       -3.90278805      -0.71692606       7.27792502
O       -3.22814188       0.50721919       6.95099338
C       -3.79904582       1.25413446       5.95348803
O       -4.81255138       0.93046320       5.34648340
C       -2.94004485       2.46102501       5.68792585
N       -3.53729806       3.34606290       4.70366943
N       -4.28529317       4.36666526       5.17503762
C       -4.65770129       5.06511216       4.09457105
C       -4.09010911       4.48524718       2.93215006
C       -3.34351085       3.38866714       3.33769900
C       -2.50274231       2.50436114       2.51679033
C       -1.78519021       3.04715164       1.43696651
C       -0.98371184       2.24276873       0.61923216
C       -0.88120087       0.88120087       0.88120087
C       -1.58987966       0.31760641       1.93663732
C       -2.41035838       1.12379667       2.73544895
C       -5.50833290       6.25797111       4.20576293
C       -5.84467506       7.02468716       3.07915337
C       -6.65134767       8.16263573       3.20120467
C       -7.12903335       8.54334063       4.45267775
C       -6.80890056       7.79844661       5.58325240
C       -6.00276276       6.66252576       5.45760927
H       -5.44126507      -1.39524707       8.63643875
H       -5.71126945       0.23838124       7.98828485
H       -4.49212529      -0.01247810       9.23167018
H       -4.34144596      -1.18560584       6.38944854
H       -3.14421702      -1.40712645       7.66120616
H       -1.95300085       2.15696140       5.33058498
H       -2.82076440       3.03003809       6.61682469
H       -4.19520464       4.82743491       1.91288830
H       -1.84208080       4.11157154       1.21635992
H       -0.44975289       2.69016145      -0.21474324
H       -1.52867751      -0.74916551       2.13858195
H       -2.99529368       0.63349108       3.50491001
H       -5.48713505       6.75466841       2.08961356
H       -6.89874761       8.74110192       2.31491361
H       -7.17680203       8.08634831       6.56428423
H       -5.76076988       6.08903087       6.35096727
C       -7.95824337       9.71404575       4.57701708
C       -8.65270677      10.69451129       4.68115126
Br      -9.77559534      12.27984113       4.84952742
C        7.12964434      -6.54316206      -0.84071808
C        6.22406661      -5.35925138      -1.11953098
O        6.26936620      -4.43724210      -0.02025386
C        5.36257348      -4.66114020       0.98295462
O        4.54174122      -5.57032397       0.97743279
C        5.49444584      -3.57656277       2.01798710
N        4.62399245      -3.80545243       3.15758552
N        5.16026848      -4.45181891       4.21490865
C        4.19683296      -4.47550590       5.14504563
C        3.05281514      -3.78953471       4.66515650
C        3.34704573      -3.33477722       3.38805405
C        2.51662478      -2.50531565       2.50195335
C        1.70469959      -1.50349676       3.06111201
C        0.88694801      -0.69921317       2.25955155
C        0.88120087      -0.88120087       0.88120087
C        1.66686792      -1.87300197       0.30425348
C        2.46354749      -2.69148502       1.11457150
C        4.40328055      -5.11915387       6.44963252
C        3.41518026      -5.08727411       7.44606121
C        3.62834499      -5.69989468       8.68694840
C        4.83301041      -6.35047614       8.94156519
C        5.82664213      -6.39514693       7.96881051
C        5.61033275      -5.78197582       6.73058923
H        7.14007269      -7.23227406      -1.68988999
H        6.80024893      -7.08817909       0.04950753
H        8.15320530      -6.20557162      -0.64745955
H        5.19848832      -5.68105248      -1.33425214
H        6.58109325      -4.82042525      -2.00322177
H        5.25327295      -2.60271545       1.58455885
H        6.52589318      -3.55431722       2.38741678
H        2.12103952      -3.62730811       5.18718022
H        1.69782847      -1.33559298       4.13659081
H        0.26219878       0.05971871       2.72269103
H        1.65597775      -2.03336080      -0.77124459
H        3.00882853      -3.49372266       0.63114359
H        2.46555387      -4.58712861       7.27873453
H        2.84889442      -5.66235614       9.44351259
H        6.76994601      -6.90057473       8.15691384
H        6.39670375      -5.82533042       5.97873385
C        5.05124326      -6.97982412      10.21823881
C        5.23401328      -7.50690306      11.28745297
Br       5.52953694      -8.35914512      13.01628183
