169
Properties=species:S:1:pos:R:3 pbc="F F F"
C        0.00000000       0.00000000       0.00000000
C        1.74657658       7.19514871      -0.18730336
C        1.92009327       5.69482460      -0.06720811
O        3.01962839       5.29636203      -0.89992569
C        4.02946458       4.60887270      -0.29020115
O        4.10176354       4.38650593       0.91195780
C        5.04276779       4.18105590      -1.31475955
N        5.37433202       2.77443544      -1.18922959
N        6.66805264       2.45006310      -0.98943768
C        6.67284927       1.12437042      -0.79060328
C        5.36564132       0.60596495      -0.98158615
C        4.53965228       1.67911277      -1.26970021
C        3.09082751       1.68823029      -1.49505729
C        2.50095296       2.43615196      -2.52241547
C        1.11413031       2.43373978      -2.70472822
C        0.30194852       1.65498792      -1.88341518
C        0.88207523       0.88207523      -0.88207523
C        2.26311501       0.89965706      -0.68158557
C        7.89780487       0.40264446      -0.42601509
C        7.87390560      -0.97071764      -0.13355047
C        9.04222042      -1.64675233       0.23282251
C       10.25092056      -0.95898750       0.31222255
C       10.28569171       0.40316977       0.02505218
C        9.12316616       1.08279300      -0.34066220
H        0.89903070       7.53762314       0.41282664
H        1.57979515       7.48172028      -1.23081886
H        2.65054205       7.71454806       0.14692298
H        1.02603692       5.18411041      -0.43854163
H        2.05325018       5.41606606       0.98274351
H        5.94949278       4.78050166      -1.17658612
H        4.69331610       4.34699837      -2.33807944
H        5.04927520      -0.42342764      -0.90829116
H        3.10711362       3.02045252      -3.20925436
H        0.66939960       3.03130644      -3.49702003
H       -0.77378288       1.64788248      -2.03829472
H        2.69577716       0.29858455       0.11516746
H        6.94769913      -1.53716331      -0.17634174
H        9.00580292      -2.70938012       0.46014662
H       11.15445704      -1.48952205       0.60020175
H        9.16626230       2.14858825      -0.55531336
C       11.53369338       1.11648098       0.11036897
C       12.57889477       1.71387912       0.18182178
Br      14.26889703       2.67982139       0.29735493
C       -7.16152491      -0.08020254      -1.88730121
C       -5.65594646       0.00668233      -2.03286186
O       -5.25269984      -0.85575837      -3.10745790
C       -4.53322145      -0.28023748      -4.11507950
O       -4.28526670       0.91558726      -4.20663223
C       -4.10620657      -1.33328355      -5.09909312
N       -2.69106005      -1.24230132      -5.40463570
N       -2.33720940      -1.07509628      -6.69524774
C       -1.00794031      -0.90264800      -6.67723466
C       -0.51943833      -1.07743791      -5.35631619
C       -1.61429974      -1.32755998      -4.54660555
C       -1.65660350      -1.52342443      -3.09408716
C       -2.43661070      -2.52368808      -2.49922161
C       -2.46529535      -2.67800388      -1.10929907
C       -1.68634598      -1.85603356      -0.29797209
C       -0.88207523      -0.88207523      -0.88207523
C       -0.86830189      -0.70917321      -2.26688254
C       -0.25493020      -0.57718147      -7.89435275
C        1.12331046      -0.31150401      -7.84854488
C        1.82956369       0.01779238      -9.01000165
C        1.16757173       0.08637923     -10.23366148
C       -0.19914684      -0.17444690     -10.29021556
C       -0.90885943      -0.50313078      -9.13463114
H       -7.50851492       0.54355386      -1.05886615
H       -7.47232704      -1.11427204      -1.70573521
H       -7.65610362       0.24592665      -2.80799016
H       -5.17060197      -0.35656738      -1.12151961
H       -5.35348921       1.04801805      -2.18110158
H       -4.68469955      -1.20160213      -6.02027888
H       -4.29963193      -2.34586601      -4.73289596
H        0.50476712      -1.01814308      -5.02076276
H       -3.02254725      -3.21092698      -3.10334627
H       -3.08739667      -3.44919511      -0.66113429
H       -1.70363537      -1.98929453       0.78053558
H       -0.24284475       0.06665156      -2.70300107
H        1.67035518      -0.34679594      -6.91043680
H        2.89563263       0.22475130      -8.95666011
H        1.72156679       0.34553030     -11.13183033
H       -1.97770692      -0.69749389      -9.19496311
C       -0.88577862      -0.10023330     -11.55379347
C       -1.46083274      -0.03807941     -12.61203997
Br      -2.39064661       0.06241818     -14.32313506
C       -3.10574963       6.69064423      -0.66736520
C       -2.99062428       5.18946099      -0.49795928
O       -3.83251606       4.78941249       0.59398756
C       -4.77019417       3.83442755       0.32391671
O       -4.99568679       3.36526624      -0.78464136
C       -5.49093317       3.45913125       1.58851883
N       -5.54815198       2.02091947       1.76892560
N       -6.76466655       1.45171378       1.89117309
C       -6.53506572       0.13133962       1.92141763
C       -5.13700822      -0.11237243       1.92855664
C       -4.50821480       1.11927888       1.86097157
C       -3.07414947       1.41525659       1.78470903
C       -2.48430124       2.44274067       2.53247849
C       -1.11493194       2.70856387       2.42910249
C       -0.31101672       1.92680450       1.60253041
C       -0.88207523       0.88207523       0.88207523
C       -2.25195578       0.62819110       0.96421076
C       -7.63255793      -0.84313252       1.93703900
C       -7.38126771      -2.22361232       1.87908305
C       -8.43360824      -3.14489646       1.87393380
C       -9.75213759      -2.69878817       1.92636109
C      -10.01254379      -1.33200425       1.98326976
C       -8.96662437      -0.40835543       1.98835241
H       -2.45696234       7.04152993      -1.47466506
H       -2.82848773       7.20553527       0.25831128
H       -4.13872445       6.97369895      -0.89425626
H       -1.96277397       4.92062019      -0.23470521
H       -3.23808386       4.68642222      -1.43793335
H       -6.51000791       3.85852642       1.53804623
H       -5.01640801       3.88400243       2.47798346
H       -4.63626454      -1.06787304       1.96574722
H       -3.07259218       3.04407697       3.22015135
H       -0.67405707       3.51930496       3.00436404
H        0.75447844       2.13066217       1.53621060
H       -2.68122007      -0.18481994       0.38279413
H       -6.36596073      -2.60714720       1.82806404
H       -8.22204606      -4.21024898       1.82447909
H      -10.56520175      -3.41965732       1.91918882
H       -9.18738559       0.65638359       2.02639474
C      -11.37514434      -0.86899087       2.03365193
C      -12.51632230      -0.48121717       2.07584699
Br     -14.36151054       0.14578011       2.14407284
C        0.15336525      -1.79051918       7.18514422
C        0.04372631      -1.95535763       5.68304205
O        0.88580189      -3.04715146       5.28296277
C        0.28673215      -4.05643589       4.58537040
O       -0.91353814      -4.13483722       4.35501259
C        1.32028273      -5.06061977       4.15768073
N        1.20561699      -5.38412187       2.74825820
N        1.01598054      -6.67700170       2.41457119
C        0.82545639      -6.67471457       1.08765200
C        1.01145842      -5.36311094       0.57862307
C        1.28767816      -4.54209493       1.65869216
C        1.50387206      -3.09197795       1.67826508
C        2.52281899      -2.50041214       2.43628927
C        2.69643150      -1.11249104       2.44367576
C        1.87491022      -0.30057615       1.66486526
C        0.88207523      -0.88207523       0.88207523
C        0.69015555      -2.26442236       0.88977974
C        0.47307783      -7.89736534       0.35602125
C        0.18904441      -7.86666838      -1.01897435
C       -0.16575966      -9.03297863      -1.70457339
C       -0.24185858     -10.24644549      -1.02487639
C        0.03701898     -10.28797659       0.33881373
C        0.39117843      -9.12748202       1.02796091
H       -0.45420019      -0.94890180       7.52912560
H        1.19400439      -1.61903216       7.47929773
H       -0.17841287      -2.69979623       7.69678378
H        0.41261818      -1.05581230       5.18025848
H       -1.00360859      -2.09331066       5.39687066
H        1.18406767      -5.97193548       4.75057740
H        2.34033276      -4.70583822       4.33222292
H        0.94260320      -5.04075081      -0.44921529
H        3.20979113      -3.10593209       3.02109728
H        3.48217088      -0.66658609       3.04896910
H        2.02307329       0.77612417       1.66544520
H       -0.10009878      -2.69826505       0.28102798
H        0.22955279      -6.93667435      -1.57934958
H       -0.38667272      -8.99130861      -2.76835971
H       -0.52084245     -11.14841222      -1.56283652
H        0.59944121      -9.17592939       2.09479332
C       -0.04490908     -11.54094076       1.04377371
C       -0.11352384     -12.59029825       1.63417770
Br      -0.22446809     -14.28702057       2.58881101
