194
Properties=species:S:1:pos:R:3 pbc="F F F"
C        1.79241252       1.79241252      -1.79241252
C        1.21654204       2.82728776      -2.52613739
C        2.02036513       3.62411417      -3.33789175
C        3.39443743       3.38154887      -3.41151667
C        3.98383020       2.34372721      -2.67113415
C        3.16545489       1.54731236      -1.85837095
C        5.42321365       2.09168628      -2.76681695
C        6.25876971       1.40078118      -1.85643388
C        7.53516175       1.39653957      -2.39678238
C        8.76079710       0.84247937      -1.81048559
C        9.01631781       1.04613298      -0.44375251
C       10.14925130       0.50419678       0.16905585
C       11.04956498      -0.24851164      -0.57922747
C       10.80332298      -0.46142084      -1.93315351
C        9.66287238       0.06547595      -2.54633903
N        7.39241978       2.05524514      -3.60183899
C        8.39513893       2.34780282      -4.62361847
C        8.16576714       1.59692842      -5.92180378
C        7.67823680       0.27981687      -5.95882985
C        7.48987512      -0.38021387      -7.17531466
C        7.79664343       0.26020125      -8.37259681
C        8.29791389       1.55928155      -8.35459099
C        8.48775410       2.22059721      -7.13863565
N        6.14446900       2.53664244      -3.80098620
H        0.14755317       3.01620866      -2.47707807
H        1.58183351       4.43112498      -3.91919883
H        4.00969440       4.00761188      -4.05607947
H        3.58654795       0.72311427      -1.28983720
H        5.97239750       0.95762882      -0.91307835
H        8.32937509       1.63430185       0.16171146
H       10.32430068       0.66812853       1.22956265
H       11.93098349      -0.66714211      -0.09990041
H        9.48328220      -0.15188706      -3.59459698
H        9.39243627       2.13442633      -4.23340151
H        8.33661917       3.43063780      -4.79310455
H        7.41165569      -0.24437485      -5.04375545
H        7.09265347      -1.39193248      -7.18676690
H        7.63993227      -0.25094647      -9.31887622
H        8.53471753       2.06161130      -9.28909156
H        8.87404375       3.23777139      -7.15097716
C       11.73310202      -1.23889487      -2.71074279
C       12.51179196      -1.89002937      -3.36197380
Br      13.77086774      -2.94285878      -4.41495928
C       -1.79241252      -1.79241252      -1.79241252
C       -1.69401923      -3.17884013      -1.69710782
C       -2.49137270      -3.98175062      -2.50924774
C       -3.38172289      -3.39413611      -3.41164397
C       -3.49094806      -1.99737312      -3.51037038
C       -2.68303364      -1.19890976      -2.68919480
C       -4.41877582      -1.39376849      -4.46917256
C       -4.96477848      -0.08757113      -4.46363516
C       -5.76306398       0.02564343      -5.59106314
C       -6.57892982       1.17208778      -6.00692001
C       -7.32902331       1.86274875      -5.03992874
C       -8.08940497       2.98482878      -5.37981605
C       -8.11502990       3.43222927      -6.69748019
C       -7.37098548       2.75879019      -7.66286036
C       -6.59633529       1.64556208      -7.32391414
N       -5.63321162      -1.19703303      -6.21925926
C       -6.23292157      -1.66790619      -7.46573245
C       -5.21912415      -1.89379575      -8.57157944
C       -4.09870847      -1.06567893      -8.75249612
C       -3.19337248      -1.30207274      -9.78953069
C       -3.39919212      -2.36135987     -10.66888951
C       -4.51388912      -3.18189711     -10.51600021
C       -5.42090174      -2.94630357      -9.47978165
N       -4.88463942      -2.07882180      -5.51863641
H       -0.99881832      -3.64074223      -1.00127934
H       -2.41974713      -5.06461171      -2.44779848
H       -3.99356056      -4.03402480      -4.04580038
H       -2.72761063      -0.11568532      -2.75620348
H       -4.80282451       0.68570692      -3.72598708
H       -7.32835200       1.53009203      -4.00370550
H       -8.65699832       3.50873502      -4.61460326
H       -8.70910504       4.30434953      -6.95898629
H       -5.99936746       1.16785188      -8.09447655
H       -7.00146005      -0.96497997      -7.79382410
H       -6.73863685      -2.60869143      -7.21303325
H       -3.89745873      -0.23991135      -8.07366622
H       -2.32085979      -0.66381068      -9.90281743
H       -2.68843875      -2.55027355     -11.46914971
H       -4.67390507      -4.01143028     -11.20008504
H       -6.28043304      -3.60555792      -9.37680133
C       -7.39582146       3.21824182      -9.02737030
C       -7.41662159       3.60303256     -10.17014738
Br      -7.45025364       4.22520664     -12.01792125
C       -1.79241252       1.79241252       1.79241252
C       -3.15975668       1.53766785       1.87254266
C       -3.96437547       2.34901745       2.66897813
C       -3.39757762       3.40991933       3.38000602
C       -2.01928284       3.67045517       3.30895356
C       -1.21909826       2.84843875       2.50360119
C       -1.43947548       4.79325486       4.04898653
C       -0.09111126       4.99378288       4.43109063
C       -0.02948707       6.21475011       5.08424652
C        1.13942861       6.84650752       5.70668315
C        2.01804398       6.05668393       6.46756335
C        3.16610916       6.60416824       7.04633315
C        3.45167828       7.95568345       6.87627565
C        2.59090260       8.74649452       6.11946374
C        1.44992823       8.19917051       5.52544508
N       -1.32575264       6.68781599       5.03593529
C       -1.87622018       7.93964567       5.55069436
C       -2.34118926       8.88463541       4.45867467
C       -1.66599525       9.01712178       3.23376650
C       -2.12139847       9.90613787       2.25743957
C       -3.25063424      10.68504933       2.49375791
C       -3.92233797      10.58034795       3.70910051
C       -3.46764284       9.69225323       4.68709090
N       -2.19195469       5.81154125       4.47860171
H       -3.60642176       0.71762948       1.31678865
H       -5.03333520       2.16349763       2.73532449
H       -4.03978718       4.04077194       3.99282662
H       -0.15335333       3.03622601       2.40992008
H        0.74350224       4.32930535       4.25730156
H        1.81449285       4.99824578       6.61821254
H        3.83625753       5.97359451       7.62552958
H        4.34464691       8.37894718       7.32944153
H        0.82157278       8.83644471       4.91112019
H       -1.13952015       8.43147413       6.18926982
H       -2.71994947       7.65017798       6.19023407
H       -0.79088346       8.41159323       3.00855960
H       -1.59881210       9.98136032       1.30731547
H       -3.60976971      11.36892918       1.72916313
H       -4.80622555      11.18569149       3.89350336
H       -4.01358149       9.62338489       5.62582592
C        2.88263743      10.14544039       5.94214697
C        3.12696534      11.31705756       5.79364418
Br       3.52202291      13.21146343       5.55352772
C        1.79241252      -1.79241252       1.79241252
C        3.17882199      -1.69015993       1.70098527
C        3.98180187      -2.50227351       2.49829567
C        3.39427650      -3.41158523       3.38164124
C        1.99749729      -3.51735875       3.48383553
C        1.19897137      -2.69613923       2.67602759
C        1.39407196      -4.48332618       4.40431873
C        0.08532243      -4.48646779       4.94419455
C       -0.02632470      -5.61815365       5.73665474
C       -1.17460642      -6.04320144       6.54516703
C       -1.87330812      -5.08298957       7.29652184
C       -2.99732358      -5.43169461       8.05002120
C       -3.43863948      -6.75154373       8.06737656
C       -2.75719517      -7.71025356       7.32199727
C       -1.64196025      -7.36246393       6.55418368
N        1.19988577      -6.24000429       5.60961384
C        1.67380235      -7.48706612       6.20569175
C        1.90962959      -8.58706569       5.18780407
C        1.08762421      -8.76658601       4.06267331
C        1.33312444      -9.79823542       3.15361605
C        2.39555926     -10.67358585       3.36029639
C        3.21014375     -10.52210087       4.47954181
C        2.96543976      -9.49127159       5.39027561
N        2.08186409      -5.53175155       4.86848199
H        3.64069568      -0.98891710       1.01122711
H        5.06468540      -2.43542192       2.43205000
H        4.03426950      -4.04560989       3.99350635
H        0.11587720      -2.76842467       2.71519756
H       -0.69064865      -3.75169290       4.78206041
H       -1.54552710      -4.04522940       7.30226318
H       -3.52747164      -4.67161853       8.61871967
H       -4.31229097      -7.01991782       8.65611495
H       -1.15784461      -8.12796757       5.95586916
H        0.96883785      -7.82205279       6.96937348
H        2.61101253      -7.23234781       6.71700119
H        0.25962514      -8.09068888       3.86072228
H        0.69949170      -9.91040436       2.27759184
H        2.59155678     -11.46960305       2.64670218
H        4.04212596     -11.20304135       4.64025307
H        3.62017352      -9.38924959       6.25336919
C       -3.21033803      -9.07700012       7.33828784
C       -3.58984517     -10.22165037       7.35193120
Br      -4.20347612     -12.07245301       7.37399135
C       -0.00445707       0.01189536      -1.78238275
H       -0.66409135       0.67374010      -2.43557963
H        0.65740317      -0.63156657      -2.45157240
C       -0.90989263      -0.90692880      -0.91072765
C        0.90977584       0.90977584      -0.90977584
C       -0.00465871       1.77757030       0.00794375
H       -0.66225468       2.44313916      -0.64384735
H        0.64322798       2.43503045       0.67728295
C       -1.78241447       0.00034974      -0.00472694
H       -2.45427497      -0.65498947       0.64260836
H       -2.43311707       0.67328779      -0.65473579
C       -0.91132561       0.90220522       0.91563759
C       -0.01476271      -0.02253852       1.78660255
H       -0.67934791      -0.69751639       2.42135241
H        0.63392994       0.61504881       2.47327442
C        0.01484550      -1.77751727      -0.01636693
H        0.67870853      -2.42144646      -0.68295456
H       -0.62264859      -2.45592969       0.64226336
C        1.78714474       0.01002794       0.00389507
H        2.44202412       0.67113390       0.66197326
H        2.45385902      -0.65136977      -0.64189061
C        0.91606151      -0.90478549       0.90901405
