186
Properties=species:S:1:pos:R:3 pbc="F F F"
C        1.79241252       1.79241252      -1.79241252
C        1.21654204       2.82728776      -2.52613739
C        2.02036513       3.62411417      -3.33789175
C        3.39443743       3.38154887      -3.41151667
C        3.98383020       2.34372721      -2.67113415
C        3.16545489       1.54731236      -1.85837095
C        5.42321365       2.09168628      -2.76681695
C        6.25876971       1.40078118      -1.85643388
C        7.53516175       1.39653957      -2.39678238
C        8.76079710       0.84247937      -1.81048559
C        9.01631781       1.04613298      -0.44375251
C       10.14925130       0.50419678       0.16905585
C       11.04956498      -0.24851164      -0.57922747
C       10.80332298      -0.46142084      -1.93315351
Br      12.02465337      -1.48268785      -2.95457191
C        9.66287238       0.06547595      -2.54633903
N        7.39241978       2.05524514      -3.60183899
C        8.39513893       2.34780282      -4.62361847
C        8.16576714       1.59692842      -5.92180378
C        7.67823680       0.27981687      -5.95882985
C        7.48987512      -0.38021387      -7.17531466
C        7.79664343       0.26020125      -8.37259681
C        8.29791389       1.55928155      -8.35459099
C        8.48775410       2.22059721      -7.13863565
N        6.14446900       2.53664244      -3.80098620
H        0.14755317       3.01620866      -2.47707807
H        1.58183351       4.43112498      -3.91919883
H        4.00969440       4.00761188      -4.05607947
H        3.58654795       0.72311427      -1.28983720
H        5.97239750       0.95762882      -0.91307835
H        8.32937509       1.63430185       0.16171146
H       10.32430068       0.66812853       1.22956265
H       11.93098349      -0.66714211      -0.09990041
H        9.48328220      -0.15188706      -3.59459698
H        9.39243627       2.13442633      -4.23340151
H        8.33661917       3.43063780      -4.79310455
H        7.41165569      -0.24437485      -5.04375545
H        7.09265347      -1.39193248      -7.18676690
H        7.63993227      -0.25094647      -9.31887622
H        8.53471753       2.06161130      -9.28909156
H        8.87404375       3.23777139      -7.15097716
C       -1.79241252      -1.79241252      -1.79241252
C       -1.30283846      -3.01184345      -2.25528527
C       -2.10428556      -3.81022490      -3.06786060
C       -3.38969784      -3.38484061      -3.41296452
C       -3.89290956      -2.15940136      -2.94638065
C       -3.07750958      -1.36338431      -2.13024431
C       -5.23704748      -1.71900948      -3.32565990
C       -6.06500268      -0.76584614      -2.68513595
C       -7.22794762      -0.66767514      -3.43286094
C       -8.41186024       0.15345162      -3.15535344
C       -8.89676198       0.22914899      -1.83859031
C       -9.99638591       1.02943508      -1.51744140
C      -10.63300829       1.76529752      -2.51257005
C      -10.15742322       1.70219348      -3.81982592
Br     -11.02008095       2.69950871      -5.17596519
C       -9.04782067       0.91538446      -4.14225115
N       -7.02585286      -1.53867371      -4.48497734
C       -7.90288945      -1.85306835      -5.61060242
C       -7.35883787      -1.38012710      -6.94553437
C       -6.65068937      -0.17543795      -7.09075620
C       -6.17430052       0.22919366      -8.33986904
C       -6.40795893      -0.55660069      -9.46488187
C       -7.12357422      -1.74500162      -9.34321060
C       -7.60154754      -2.15075899      -8.09468044
N       -5.86451764      -2.22532320      -4.39225680
H       -0.30165366      -3.34440887      -1.99477736
H       -1.73143138      -4.76118736      -3.43953858
H       -4.00251875      -4.01569243      -4.05517456
H       -3.42852966      -0.40045570      -1.77051406
H       -5.84803196      -0.21310612      -1.78196658
H       -8.41848528      -0.33983149      -1.04364871
H      -10.35105035       1.07900627      -0.49082248
H      -11.48940689       2.38544520      -2.25978010
H       -8.68128826       0.91930199      -5.16400586
H       -8.89456493      -1.43120960      -5.43448958
H       -8.00836218      -2.94556084      -5.60643850
H       -6.43481522       0.45424016      -6.23046123
H       -5.61070407       1.15415627      -8.43094010
H       -6.02785712      -0.24556040     -10.43444449
H       -7.30381112      -2.36112503     -10.22048425
H       -8.15194538      -3.08675810      -8.02408881
C       -1.79241252       1.79241252       1.79241252
C       -3.11150900       2.03983008       1.41862812
C       -3.91142009       2.85258838       2.21836259
C       -3.38801416       3.41316508       3.38632373
C       -2.06091190       3.16461465       3.77316501
C       -1.26448955       2.34621763       2.96043101
C       -1.52039997       3.76840002       4.99291688
C       -0.40003617       3.35996668       5.75598192
C       -0.26659774       4.26212141       6.79976454
C        0.71723995       4.24284396       7.88815805
C        1.02383126       3.02036626       8.50966830
C        1.98308530       2.94447814       9.52299940
C        2.64947511       4.09482619       9.93492974
C        2.35763503       5.31066367       9.32202701
Br       3.25978526       6.87703307       9.87928962
C        1.41030468       5.38805982       8.29693223
N       -1.28750512       5.16854950       6.59344929
C       -1.64390428       6.35619474       7.36646120
C       -1.41990759       7.65300063       6.61159112
C       -0.33666478       7.84290501       5.73731374
C       -0.16054074       9.05624926       5.06818591
C       -1.05621094      10.10240091       5.27082964
C       -2.12568272       9.93857701       6.14752670
C       -2.30280646       8.72588511       6.81829539
N       -2.08707743       4.84223876       5.55278145
H       -3.52150502       1.61121734       0.50811753
H       -4.94048373       3.05726498       1.93440861
H       -4.02249149       4.05279534       3.99809892
H       -0.22779930       2.15179631       3.21990381
H        0.23870601       2.50704022       5.57477047
H        0.51359862       2.10766995       8.20789414
H        2.21008129       1.98714865       9.98579920
H        3.39383433       4.03272413      10.72485199
H        1.23520544       6.34529346       7.81590410
H       -1.08903601       6.36431163       8.30691647
H       -2.70615711       6.23805581       7.61614861
H        0.37221817       7.04133899       5.54191548
H        0.67156375       9.17930593       4.37974571
H       -0.92370118      11.04246949       4.74169134
H       -2.82766347      10.75369870       6.30405823
H       -3.15004541       8.61993273       7.49281416
C        1.79241252      -1.79241252       1.79241252
C        3.14704772      -1.49605023       1.92686924
C        3.95216039      -2.30711649       2.72309418
C        3.39856693      -3.40931324       3.37962281
C        2.03289234      -3.71212361       3.25367562
C        1.23214017      -2.88995697       2.44904106
C        1.46744473      -4.87755240       3.93671974
C        0.11486329      -5.13472475       4.26639673
C        0.07317217      -6.37838148       4.87693004
C       -1.09345683      -7.06855895       5.43865994
C       -2.02255528      -6.33391983       6.19483874
C       -3.16977403      -6.93776449       6.71640177
C       -3.40390997      -8.29137211       6.49281867
C       -2.49273097      -9.02771669       5.74006993
Br      -2.80596337     -10.86795342       5.43454739
C       -1.35209242      -8.42374927       5.20303051
N        1.38553763      -6.80701589       4.85695040
C        1.96081918      -8.05686927       5.34887176
C        2.49275996      -8.94883029       4.24290909
C        1.86273074      -9.06189151       2.99226128
C        2.37945514      -9.90215358       2.00336719
C        3.52600349     -10.65134244       2.25209556
C        4.15379516     -10.56582691       3.49216436
C        3.63775487      -9.72651820       4.48271390
N        2.23941788      -5.88465944       4.35802031
H        3.58369766      -0.64360595       1.41353629
H        5.01152349      -2.08917074       2.83146309
H        4.04135214      -4.03918739       3.99284620
H        0.17695639      -3.10914110       2.31340194
H       -0.73556815      -4.49234227       4.08633056
H       -1.85983168      -5.27508741       6.38670974
H       -3.87933911      -6.34927391       7.29293175
H       -4.29640469      -8.75857697       6.90156951
H       -0.68290250      -9.01911165       4.58978297
H        1.22068525      -8.59371804       5.94586082
H        2.77299839      -7.76176422       6.02559891
H        0.97551045      -8.47798032       2.75754553
H        1.89097175      -9.96230164       1.03421451
H        3.93274286     -11.29697360       1.47814556
H        5.05110628     -11.14789118       3.68642293
H        4.15015058      -9.67157152       5.44107020
C       -0.00445707       0.01189536      -1.78238275
H       -0.66409135       0.67374010      -2.43557963
H        0.65740317      -0.63156657      -2.45157240
C       -0.90989263      -0.90692880      -0.91072765
C        0.90977584       0.90977584      -0.90977584
C       -0.00465871       1.77757030       0.00794375
H       -0.66225468       2.44313916      -0.64384735
H        0.64322798       2.43503045       0.67728295
C       -1.78241447       0.00034974      -0.00472694
H       -2.45427497      -0.65498947       0.64260836
H       -2.43311707       0.67328779      -0.65473579
C       -0.91132561       0.90220522       0.91563759
C       -0.01476271      -0.02253852       1.78660255
H       -0.67934791      -0.69751639       2.42135241
H        0.63392994       0.61504881       2.47327442
C        0.01484550      -1.77751727      -0.01636693
H        0.67870853      -2.42144646      -0.68295456
H       -0.62264859      -2.45592969       0.64226336
C        1.78714474       0.01002794       0.00389507
H        2.44202412       0.67113390       0.66197326
H        2.45385902      -0.65136977      -0.64189061
C        0.91606151      -0.90478549       0.90901405
