165
Properties=species:S:1:pos:R:3 pbc="F F F"
C        0.00000000       0.00000000       0.00000000
C        0.88157073       0.88157073      -0.88157073
C        2.16468826       1.21772359      -0.45910746
C        2.97107549       2.03209330      -1.26247147
C        2.50187004       2.51675606      -2.49313208
C        1.20483270       2.16117809      -2.90000268
C        0.39659889       1.34772079      -2.09970451
C        3.32741781       3.39692192      -3.32890613
C        4.65877210       3.82752080      -3.11467148
C        4.98873596       4.68982785      -4.14970199
C        6.27281023       5.36416511      -4.38109226
C        6.37171968       6.69631857      -4.79882105
C        7.62010286       7.30715958      -4.97444791
C        8.78484245       6.59700162      -4.70054974
Br      10.46772608       7.43105522      -4.90569798
C        8.71369524       5.28024924      -4.26115032
C        7.46465483       4.66944603      -4.10943384
N        3.83445711       4.75803335      -4.90325914
C        3.53823002       5.56430653      -6.08672287
C        2.95219067       6.92494219      -5.75679371
C        2.16756436       7.15482879      -4.61386822
C        1.65498051       8.42333880      -4.33722276
C        1.89666418       9.47795436      -5.21144040
C        2.64028557       9.26200523      -6.36932212
C        3.15839796       7.99396186      -6.64477474
N        2.85844135       3.92741924      -4.46351688
H        2.54756346       0.85877546       0.49248018
H        3.96396552       2.28471344      -0.90163857
H        0.81117766       2.52412471      -3.84839322
H       -0.60392802       1.09241598      -2.43705526
H        5.31084135       3.55821033      -2.29611810
H        5.48748582       7.30285662      -4.96172696
H        7.66658220       8.34167669      -5.30476916
H        9.61591977       4.72062388      -4.02850520
H        7.43317523       3.63644796      -3.76686162
H        2.82582207       5.00124159      -6.70171594
H        4.46827018       5.65635663      -6.65764547
H        1.94490143       6.34995449      -3.91506038
H        1.06404877       8.58208204      -3.43864022
H        1.49661530      10.46499724      -4.99444768
H        2.81575791      10.08334641      -7.05960414
H        3.73288226       7.84905755      -7.55754817
C       -0.88157073      -0.88157073      -0.88157073
C       -0.41453725      -1.30388053      -2.12310152
C       -1.22448330      -2.10552675      -2.93563021
C       -2.50651227      -2.49089134      -2.51435457
C       -2.95475396      -2.05534051      -1.25591900
C       -2.14802386      -1.25431651      -0.44168381
C       -3.37629674      -3.30531296      -3.37163616
C       -3.09228682      -3.87079171      -4.63788585
C       -4.24287515      -4.50971843      -5.07567223
C       -4.42933316      -5.27091250      -6.31782194
C       -5.58363968      -5.17921609      -7.10400353
C       -5.70232258      -5.90013325      -8.29925452
C       -4.64885396      -6.69693273      -8.73660713
Br      -4.79582653      -7.64344345     -10.36520929
C       -3.48198560      -6.78642237      -7.98668683
C       -3.37892960      -6.08155547      -6.78304963
N       -5.15882731      -4.26400442      -4.07291786
C       -6.57466896      -4.62107686      -3.99351360
C       -7.49557840      -3.56376489      -4.57458329
C       -7.17993261      -2.19446915      -4.56185962
C       -8.04715621      -1.25181020      -5.11657566
C       -9.25626169      -1.65906705      -5.67073020
C       -9.60478520      -3.00765692      -5.65917080
C       -8.73527605      -3.95289477      -5.10896373
N       -4.62806017      -3.60934697      -3.01197032
H        0.57254932      -1.01355401      -2.47285405
H       -0.83609215      -2.41141869      -3.90280669
H       -3.94612816      -2.33519707      -0.90237035
H       -2.52199893      -0.92821464       0.52467037
H       -2.16299951      -3.81553672      -5.18663355
H       -6.40090833      -4.52083087      -6.83033020
H       -6.61263320      -5.81349540      -8.88689946
H       -2.64620994      -7.39268529      -8.32615362
H       -2.45679306      -6.16889072      -6.21080103
H       -6.81917839      -4.77417948      -2.93542173
H       -6.69590561      -5.58239744      -4.50396923
H       -6.24953311      -1.83727571      -4.12310748
H       -7.77518873      -0.19926814      -5.11031416
H       -9.93034460      -0.92360615      -6.10210947
H      -10.55675842      -3.32313297      -6.07881707
H       -9.03138820      -5.00003450      -5.10806529
C       -0.88157073       0.88157073       0.88157073
C       -2.06787912       1.40183556       0.37180463
C       -2.87311418       2.21641940       1.17610668
C       -2.49937076       2.51747003       2.49491739
C       -1.29951213       1.97801382       2.98848752
C       -0.49270611       1.16381175       2.18750632
C       -3.32053166       3.39596352       3.33675067
C       -4.56848388       3.99389884       3.03858167
C       -4.92416856       4.77845980       4.12563745
C       -6.15105717       5.56672445       4.30028598
C       -6.16085800       6.85219359       4.85380772
C       -7.35260722       7.57932226       4.96978087
C       -8.54491543       7.03696073       4.50051765
Br     -10.14680182       8.03086064       4.62681682
C       -8.55853995       5.77205357       3.92450128
C       -7.36884188       5.04246107       3.83223175
N       -3.86161200       4.63882457       4.99531302
C       -3.62085642       5.28210642       6.28629658
C       -2.86620368       6.59413562       6.17358727
C       -1.93807836       6.84860451       5.14957851
C       -1.27140550       8.07247878       5.07165779
C       -1.50212650       9.05345093       6.03048150
C       -2.39000034       8.80660140       7.07501119
C       -3.06195522       7.58393477       7.15124457
N       -2.93149796       3.75209105       4.56578845
H       -2.37510217       1.18694897      -0.64819240
H       -3.78801583       2.61503788       0.74726382
H       -0.98086697       2.19595762       4.00687100
H        0.43212737       0.76405933       2.59361125
H       -5.14772405       3.88455546       2.13289027
H       -5.24375975       7.33513317       5.17317648
H       -7.33090938       8.57355339       5.40856528
H       -9.48076994       5.34459510       3.53968380
H       -7.40382530       4.05267145       3.37998806
H       -3.04343716       4.58257875       6.90276370
H       -4.59532960       5.42033989       6.76660278
H       -1.72065018       6.09882054       4.39044558
H       -0.56958417       8.25373987       4.26144698
H       -0.98199722      10.00580207       5.96826093
H       -2.55815034       9.56818845       7.83236968
H       -3.74772073       7.41305109       7.97871617
C        0.88157073      -0.88157073       0.88157073
C        0.44281868      -1.24777845       2.15092217
C        1.25311874      -2.04935026       2.96317126
C        2.50727799      -2.49065507       2.51382512
C        2.92712204      -2.11113943       1.22775200
C        2.11995747      -1.31035150       0.41371521
C        3.37843229      -3.30553987       3.36927369
C        3.11871025      -3.82006875       4.66218538
C        4.26203867      -4.48255245       5.08367469
C        4.46515709      -5.20905485       6.34385566
C        5.64740033      -5.13058233       7.08887664
C        5.78255242      -5.81610441       8.30305352
C        4.71908922      -6.56279394       8.80051066
Br       4.88967283      -7.46062365      10.45418280
C        3.52557831      -6.63747277       8.09204373
C        3.40523855      -5.96877551       6.86952063
N        5.15148982      -4.30001630       4.04424348
C        6.55163295      -4.70648856       3.93113791
C        7.52505475      -3.66227663       4.44659519
C        7.25351860      -2.28433953       4.39840324
C        8.16873305      -1.35371708       4.89309194
C        9.38187385      -1.78297647       5.42120861
C        9.68611068      -3.14211030       5.44339195
C        8.76868030      -4.07508712       4.95336713
N        4.60703840      -3.66260385       2.97973521
H       -0.52216882      -0.91355477       2.52247279
H        0.88753124      -2.31074324       3.95204304
H        3.89660386      -2.43516996       0.85192177
H        2.47182412      -1.02826302      -0.57454393
H        2.21050980      -3.71616849       5.23849149
H        6.47590991      -4.50899732       6.76716218
H        6.71427773      -5.74095487       8.85779545
H        2.68245828      -7.20425092       8.47833965
H        2.46219107      -6.04373035       6.33056339
H        6.75564753      -4.90173099       2.87140109
H        6.65873741      -5.65434186       4.46919300
H        6.32101661      -1.91066054       3.97823914
H        7.93082048      -0.29344054       4.86051001
H       10.09335486      -1.05686775       5.80583762
H       10.64087234      -3.47545303       5.84238309
H        9.03064707      -5.13100352       4.97783740
