173
Properties=species:S:1:pos:R:3 pbc="F F F"
C        0.00000000       0.00000000       0.00000000
C        0.88157073       0.88157073      -0.88157073
C        2.16468826       1.21772359      -0.45910746
C        2.97107549       2.03209330      -1.26247147
C        2.50187004       2.51675606      -2.49313208
C        1.20483270       2.16117809      -2.90000268
C        0.39659889       1.34772079      -2.09970451
C        3.32741781       3.39692192      -3.32890613
C        4.65877210       3.82752080      -3.11467148
C        4.98873596       4.68982785      -4.14970199
C        6.27281023       5.36416511      -4.38109226
C        6.37171968       6.69631857      -4.79882105
C        7.62010286       7.30715958      -4.97444791
C        8.78484245       6.59700162      -4.70054974
C        8.71369524       5.28024924      -4.26115032
C        7.46465483       4.66944603      -4.10943384
N        3.83445711       4.75803335      -4.90325914
C        3.53823002       5.56430653      -6.08672287
C        2.95219067       6.92494219      -5.75679371
C        2.16756436       7.15482879      -4.61386822
C        1.65498051       8.42333880      -4.33722276
C        1.89666418       9.47795436      -5.21144040
C        2.64028557       9.26200523      -6.36932212
C        3.15839796       7.99396186      -6.64477474
N        2.85844135       3.92741924      -4.46351688
H        2.54756346       0.85877546       0.49248018
H        3.96396552       2.28471344      -0.90163857
H        0.81117766       2.52412471      -3.84839322
H       -0.60392802       1.09241598      -2.43705526
H        5.31084135       3.55821033      -2.29611810
H        5.48748582       7.30285662      -4.96172696
H        7.66658220       8.34167669      -5.30476916
H        9.61591977       4.72062388      -4.02850520
H        7.43317523       3.63644796      -3.76686162
H        2.82582207       5.00124159      -6.70171594
H        4.46827018       5.65635663      -6.65764547
H        1.94490143       6.34995449      -3.91506038
H        1.06404877       8.58208204      -3.43864022
H        1.49661530      10.46499724      -4.99444768
H        2.81575791      10.08334641      -7.05960414
H        3.73288226       7.84905755      -7.55754817
C       10.06744737       7.23267317      -4.85690288
C       11.14162899       7.76504810      -4.98784863
Br      12.87848982       8.62585332      -5.19957685
C       -0.88157073      -0.88157073      -0.88157073
C       -0.40060708      -1.33375136      -2.10716087
C       -1.21036193      -2.13544568      -2.91983265
C       -2.50610072      -2.49103448      -2.51462298
C       -2.96833780      -2.02564441      -1.27203126
C       -2.16183849      -1.22448626      -0.45769944
C       -3.37512522      -3.30525246      -3.37286818
C       -3.07922643      -3.89782137      -4.62391659
C       -4.23314524      -4.52432920      -5.07079136
C       -4.41144109      -5.30397221      -6.30265429
C       -5.55014725      -5.20616246      -7.11054960
C       -5.66079121      -5.94588845      -8.29503069
C       -4.61412014      -6.76842329      -8.69985039
C       -3.46218843      -6.86488446      -7.92802192
C       -3.36759514      -6.14078494      -6.73515462
N       -5.16186628      -4.24512031      -4.08876301
C       -6.58495089      -4.57613716      -4.02817136
C       -7.47685162      -3.51343489      -4.64364006
C       -7.13736553      -2.14980573      -4.64909011
C       -7.97807646      -1.20218717      -5.23527844
C       -9.18438995      -1.59813453      -5.80353444
C       -9.55679939      -2.94006577      -5.77474776
C       -8.71377094      -3.89038161      -5.19298200
N       -4.63810481      -3.58114718      -3.03012548
H        0.59736292      -1.06679651      -2.44442515
H       -0.81071895      -2.46504047      -3.87455811
H       -3.97047522      -2.28199119      -0.93122917
H       -2.54669898      -0.87495216       0.49610793
H       -2.13973535      -3.86837484      -5.15705960
H       -6.36029495      -4.52898204      -6.86279241
H       -6.55910724      -5.85386306      -8.90005775
H       -2.63147921      -7.49144011      -8.24212953
H       -2.45720219      -6.23398416      -6.14529846
H       -6.85043000      -4.70628694      -2.97206267
H       -6.71426089      -5.54406742      -4.52394395
H       -6.20855533      -1.80111069      -4.20025028
H       -7.68773153      -0.15457157      -5.24246793
H       -9.83781293      -0.85882305      -6.25942425
H      -10.50677196      -3.24634511      -6.20559140
H       -9.02828197      -4.93205163      -5.17915438
C       -4.71730895      -7.50953926      -9.93017522
C       -4.80372958      -8.13022388     -10.96057226
Br      -4.94346443      -9.13381842     -12.62663714
C       -0.88157073       0.88157073       0.88157073
C       -2.03040265       1.46094061       0.35017604
C       -2.83528321       2.27554507       1.15481198
C       -2.49859024       2.51760091       2.49556703
C       -1.33630777       1.91913749       3.01056821
C       -0.52996325       1.10474429       2.20931664
C       -3.31851654       3.39531374       3.33941557
C       -4.53377863       4.04718100       3.02000475
C       -4.90075492       4.80608154       4.12142935
C       -6.10526657       5.63104593       4.28175510
C       -6.09057830       6.89626659       4.88001441
C       -7.26000632       7.66093570       4.98076833
C       -8.45279179       7.17780221       4.45179982
C       -8.48936944       5.93472517       3.83100019
C       -7.32291840       5.16685362       3.75376268
N       -3.87525196       4.59891058       5.02158706
C       -3.65863199       5.18846814       6.34215929
C       -2.85580114       6.47590448       6.30222095
C       -1.88362067       6.73222030       5.32042040
C       -1.17292979       7.93354546       5.30906682
C       -1.40378132       8.88857591       6.29370170
C       -2.33622812       8.63773225       7.29765256
C       -3.05209299       7.43785924       7.30718232
N       -2.96146398       3.69492006       4.59299342
H       -2.30833086       1.29230631      -0.68677843
H       -3.72010164       2.72097660       0.70923929
H       -1.04680895       2.09047417       4.04641247
H        0.36554516       0.65860816       2.63248021
H       -5.08383195       3.98971389       2.09162394
H       -5.16937287       7.33499763       5.24769890
H       -7.21978327       8.63809715       5.45514764
H       -9.41146415       5.55383924       3.39974546
H       -7.37577907       4.19506367       3.26564207
H       -3.12790195       4.44805946       6.95281819
H       -4.64425606       5.34470889       6.79330732
H       -1.66520778       6.00170518       4.54300334
H       -0.43690159       8.11745009       4.53041935
H       -0.84934483       9.82338667       6.28332872
H       -2.50495439       9.37834307       8.07541101
H       -3.77234274       7.26315465       8.10399059
C       -9.64956263       7.97451752       4.53294327
C      -10.65185821       8.64176660       4.60090091
Br     -12.27248539       9.72065193       4.71078267
C        0.88157073      -0.88157073       0.88157073
C        0.43811853      -1.25673445       2.14666633
C        1.24836253      -2.05831674       2.95896100
C        2.50715638      -2.49068994       2.51391185
C        2.93171859      -2.10222964       1.23206524
C        2.12462347      -1.30140542       0.41799529
C        3.37809704      -3.30549374       3.36965508
C        3.11432634      -3.82816227       4.65847576
C        4.25890164      -4.48686506       5.08249910
C        4.45924399      -5.21890920       6.33991440
C        5.63714678      -5.13817321       7.09153931
C        5.76954982      -5.82935172       8.30280881
C        4.70743952      -6.58419599       8.79075830
C        3.51805831      -6.66138945       8.07564704
C        3.40059928      -5.98691398       6.85602144
N        5.15280378      -4.29421980       4.04872601
C        6.55563632      -4.69276545       3.94085765
C        7.52084762      -3.64620182       4.46687713
C        7.24232821      -2.26946908       4.42446408
C        8.15003940      -1.33668698       4.92881569
C        9.36264176      -1.76236731       5.46104987
C        9.67389810      -3.11998961       5.47772522
C        8.76395903      -4.05516211       4.97801342
N        4.61058296      -3.65407639       2.98471811
H       -0.53054192      -0.92951852       2.51488214
H        0.87898848      -2.32681179       3.94451726
H        3.90484204      -2.41920669       0.85964685
H        2.48016505      -1.01229041      -0.56691225
H        2.20259140      -3.73204276       5.23053563
H        6.46404857      -4.51058225       6.77743858
H        6.69795393      -5.75224836       8.86282575
H        2.67592072      -7.23459090       8.45453723
H        2.46078974      -6.06396482       6.31173025
H        6.76621257      -4.88136560       2.88120143
H        6.66490660      -5.64286080       4.47450487
H        6.31008463      -1.89846767       4.00136399
H        7.90673071      -0.27751231       4.90052801
H       10.06827553      -1.03458010       5.85320460
H       10.62829942      -3.45042819       5.87998085
H        9.03134075      -5.10980835       4.99833887
C        4.83445250      -7.27440033      10.04817059
C        4.94082587      -7.85244646      11.10125339
Br       5.11282261      -8.78709817      12.80399920
