194
Properties=species:S:1:pos:R:3 pbc="F F F"
C        1.79147475       1.79147475      -1.79147475
C        3.07459228       2.12762761      -1.36901148
C        3.88097952       2.94199732      -2.17237549
C        3.41177406       3.42666008      -3.40303611
C        2.11473673       3.07108211      -3.80990671
C        1.30650291       2.25762481      -3.00960853
C        4.23732184       4.30682594      -4.23881015
C        5.56867613       4.73742482      -4.02457550
C        5.89863999       5.59973188      -5.05960602
C        7.18271426       6.27406913      -5.29099628
C        7.28162371       7.60622259      -5.70872507
C        8.53000689       8.21706361      -5.88435193
C        9.69474648       7.50690565      -5.61045376
C        9.62359927       6.19015326      -5.17105435
C        8.37455886       5.57935005      -5.01933786
N        4.74436113       5.66793737      -5.81316316
C        4.44813404       6.47421055      -6.99662689
C        3.86209469       7.83484621      -6.66669774
C        3.07746839       8.06473282      -5.52377224
C        2.56488453       9.33324283      -5.24712678
C        2.80656820      10.38785838      -6.12134442
C        3.55018959      10.17190925      -7.27922615
C        4.06830198       8.90386588      -7.55467876
N        3.76834537       4.83732326      -5.37342090
H        3.45746748       1.76867949      -0.41742385
H        4.87386955       3.19461746      -1.81154259
H        1.72108169       3.43402873      -4.75829724
H        0.30597600       2.00232000      -3.34695928
H        6.22074538       4.46811435      -3.20602213
H        6.39738985       8.21276064      -5.87163099
H        8.57648622       9.25158071      -6.21467318
H       10.52582379       5.63052791      -4.93840922
H        8.34307926       4.54635198      -4.67676564
H        3.73572610       5.91114561      -7.61161997
H        5.37817420       6.56626065      -7.56754949
H        2.85480545       7.25985852      -4.82496440
H        1.97395280       9.49198606      -4.34854425
H        2.40651933      11.37490126      -5.90435171
H        3.72566193      10.99325044      -7.96950816
H        4.64278629       8.75896157      -8.46745219
C       10.97735140       8.14257720      -5.76680690
C       12.05153302       8.67495212      -5.89775266
Br      13.78839384       9.53575735      -6.10948087
C       -1.79147475      -1.79147475      -1.79147475
C       -1.32080711      -2.22141733      -3.02900694
C       -2.13070449      -3.02307527      -3.84157257
C       -3.41631138      -3.40083080      -3.42432807
C       -3.86820368      -2.95765553      -2.16986633
C       -3.06153259      -2.15659781      -1.35560585
C       -4.28590369      -4.21519753      -4.28185671
C       -3.99878684      -4.78760099      -5.54428862
C       -5.15026160      -5.42334618      -5.98437010
C       -5.33458708      -6.18925590      -7.22393669
C       -6.48495533      -6.09593600      -8.01568004
C       -6.60153578      -6.82166174      -9.20822491
C       -5.54970643      -7.62509980      -9.63729966
C       -4.38660506      -7.71643136      -8.88177046
C       -4.28576046      -7.00664834      -7.68083797
N       -6.06956529      -5.16906388      -4.98683250
C       -7.48733153      -5.51946211      -4.91217785
C       -8.40089792      -4.46066791      -5.50207281
C       -8.07918379      -3.09274962      -5.49404004
C       -8.93969629      -2.14872746      -6.05683039
C      -10.14813092      -2.55306761      -6.61457247
C      -10.50273765      -3.90002516      -6.59856218
C       -9.63993110      -4.84665654      -6.04025898
N       -5.54060684      -4.51203488      -3.92644781
H       -0.33088112      -1.93706292      -3.37562677
H       -1.73937933      -3.33502325      -4.80562703
H       -4.86238727      -3.23150407      -1.81951632
H       -3.43834780      -1.82450826      -0.39239922
H       -3.06682447      -4.73894683      -6.08911056
H       -7.30047957      -5.43269527      -7.74860664
H       -7.50882069      -6.73359897      -9.80032047
H       -3.55204750      -8.32792793      -9.21478549
H       -3.36658436      -7.09553015      -7.10408237
H       -7.73723839      -5.66673384      -3.85451945
H       -7.61059481      -6.48250875      -5.41888079
H       -7.14915931      -2.73774621      -5.05272285
H       -8.66304913      -1.09739075      -6.05404322
H      -10.81698417      -1.81654809      -7.05224003
H      -11.45423380      -4.21313029      -7.02105644
H       -9.94073017      -5.89245134      -6.03601854
C       -5.65941592      -8.35152443     -10.87579515
C       -5.75129762      -8.95990505     -11.91303513
Br      -5.89986255      -9.94360507     -13.59016444
C       -1.79147475       1.79147475       1.79147475
C       -2.95991424       2.34054705       1.27077009
C       -3.76497557       3.15514392       2.07523284
C       -3.40889301       3.42744394       3.40513330
C       -2.22695305       2.85922654       3.90954595
C       -1.42037176       2.04492834       3.10843615
C       -4.22944140       4.30557207       4.24794446
C       -5.46182762       4.92978034       3.93906849
C       -5.82282752       5.70187809       5.03327227
C       -7.03905904       6.50802217       5.20069846
C       -7.03666860       7.78394872       5.77595405
C       -8.21779544       8.52936144       5.88426555
C       -9.41085570       8.01553475       5.38571544
C       -9.43593178       6.76094573       4.78792937
C       -8.25730383       6.01270519       4.70323774
N       -4.77785869       5.52937677       5.91822621
C       -4.54847411       6.14656054       7.22393684
C       -3.76997043       7.44716095       7.14650726
C       -2.82024807       7.70290502       6.14282037
C       -2.13178305       8.91629891       6.09717219
C       -2.36234125       9.88476991       7.06865985
C       -3.27204739       9.63560605       8.09367156
C       -3.96574357       8.42353856       8.13756450
N       -3.85560322       4.63418521       5.48930110
H       -3.25316986       2.14820328       0.24219768
H       -4.66552791       3.57658232       1.63791937
H       -1.92219936       3.05445785       4.93675045
H       -0.50951940       1.62256951       3.52316637
H       -6.02720252       4.84568874       3.02199059
H       -6.11716882       8.24562235       6.11899031
H       -8.18685997       9.51552953       6.34035062
H      -10.35850264       6.35592941       4.38032887
H       -8.30121513       5.03143238       4.23354937
H       -3.99360284       5.42692609       7.83796275
H       -5.52857532       6.29337330       7.69003572
H       -2.60250529       6.96241435       5.37470874
H       -1.41320315       9.09913290       5.30214705
H       -1.82522767      10.82896922       7.03157541
H       -3.44029668      10.38708067       8.86104319
H       -4.66839343       8.25051223       8.95029439
C      -10.62024730       8.79214034       5.47434785
C      -11.63311277       9.44254753       5.54857750
Br     -13.27083056      10.49420093       5.66860056
C        1.79147475      -1.79147475       1.79147475
C        1.35444243      -2.15443873       3.06235022
C        2.16476276      -2.95600687       3.87458270
C        3.41722600      -3.40054673       3.42369752
C        3.83534386      -3.02427066       2.13611102
C        3.02815412      -2.22349576       1.32208637
C        4.28845721      -4.21546154       4.27903919
C        4.03021762      -4.72704176       5.57341708
C        5.17308619      -5.39089676       5.99399493
C        5.37722098      -6.11539167       7.25516701
C        6.56102509      -6.03775326       7.99779303
C        6.69718411      -6.72122609       9.21301223
C        5.63325365      -7.46494750       9.71390474
C        4.43825861      -7.53870147       9.00784681
C        4.31686409      -6.87209739       7.78428529
N        6.06090457      -5.21202421       4.95253289
C        7.46005642      -5.62137118       4.83754388
C        8.43643579      -4.57803544       5.34916741
C        8.16742341      -3.19967858       5.29887145
C        9.08534063      -2.26986066       5.79005286
C       10.29866652      -2.70042260       6.31668188
C       10.60036569      -4.06008777       6.34087153
C        9.68023695      -4.99224699       5.85436269
N        5.51564093      -4.57559882       3.88784979
H        0.39079884      -1.81767692       3.43509506
H        1.80056041      -3.21482774       4.86464145
H        4.80349296      -3.35085602       1.75905867
H        3.37867610      -1.94395222       0.33262696
H        3.12331310      -4.62032200       6.15124676
H        7.39009947      -5.41835583       7.67332617
H        7.63010317      -6.64679544       9.76584151
H        3.59480058      -8.10314192       9.39681842
H        3.37265326      -6.94628187       7.24726175
H        7.66168533      -5.81901140       3.77779494
H        7.56638492      -6.56840380       5.37719563
H        7.23483507      -2.82502550       4.87976780
H        8.84937868      -1.20919751       5.75590691
H       11.01225379      -1.97493921       6.69857930
H       11.55524991      -4.39448723       6.73868340
H        9.94024587      -6.04861113       5.88034305
C        5.76436052      -8.14707922      10.97529576
C        5.87416253      -8.71836453      12.03171074
Br       6.05170308      -9.64208457      13.73984441
C       -0.00445707       0.01189536      -1.78238275
H       -0.66409135       0.67374010      -2.43557963
H        0.65740317      -0.63156657      -2.45157240
C       -0.90989263      -0.90692880      -0.91072765
C        0.90977584       0.90977584      -0.90977584
C       -0.00465871       1.77757030       0.00794375
H       -0.66225468       2.44313916      -0.64384735
H        0.64322798       2.43503045       0.67728295
C       -1.78241447       0.00034974      -0.00472694
H       -2.45427497      -0.65498947       0.64260836
H       -2.43311707       0.67328779      -0.65473579
C       -0.91132561       0.90220522       0.91563759
C       -0.01476271      -0.02253852       1.78660255
H       -0.67934791      -0.69751639       2.42135241
H        0.63392994       0.61504881       2.47327442
C        0.01484550      -1.77751727      -0.01636693
H        0.67870853      -2.42144646      -0.68295456
H       -0.62264859      -2.45592969       0.64226336
C        1.78714474       0.01002794       0.00389507
H        2.44202412       0.67113390       0.66197326
H        2.45385902      -0.65136977      -0.64189061
C        0.91606151      -0.90478549       0.90901405
