182
Properties=species:S:1:pos:R:3 pbc="F F F"
C        1.79111692       1.79111692      -1.79111692
C        1.39563923       3.09671540      -2.07976373
C        2.20856922       3.91173276      -2.87451943
C        3.42093372       3.42101738      -3.38145391
C        3.80059318       2.10138077      -3.09050731
C        2.98715478       1.28721852      -2.29713841
C        4.34919957       4.24774225      -4.20129665
O        5.41873201       3.83084014      -4.61886487
O        3.82547737       5.52171709      -4.36201121
C        4.51970647       6.52848882      -5.06254646
C        4.29207783       7.83459538      -4.63278814
C        4.90213582       8.89894560      -5.30128694
C        5.73855264       8.66641197      -6.40496372
C        5.95460503       7.34754131      -6.82547186
C        5.33257547       6.28085867      -6.16464662
C        6.33951858       9.85193454      -7.09196706
O        6.02963111      10.98373703      -6.71713146
C        7.33424668       9.64388556      -8.23159720
O        7.34131467      10.76390699      -9.12529951
C        6.26307618      10.79593441      -9.97097283
O        5.41798858       9.91077550     -10.02014711
C        6.29803690      12.07437254     -10.78806176
H        6.21379189      12.93475421     -10.11751558
C        7.53041634      12.15716584     -11.66913427
H        0.46197381       3.49184658      -1.68573519
H        1.88065288       4.92786796      -3.08175371
H        4.73708548       1.70057947      -3.47712856
H        3.29958176       0.26893533      -2.07623416
H        3.63951602       8.02952276      -3.78644831
H        4.71181332       9.91548017      -4.95972425
H        6.58295839       7.10266275      -7.67471635
H        5.49152808       5.27125678      -6.53406591
H        7.15496747       8.73222151      -8.80430403
H        8.33327073       9.57301244      -7.78978756
H        7.60998206      11.28715321     -12.33120993
H        8.44320272      12.19034661     -11.06501768
H        7.51463570      13.05575120     -12.29552610
C        5.13069282      12.13106210     -11.62930733
C        4.15304216      12.17853960     -12.33385050
Br       2.57226373      12.25530671     -13.47303721
C       -1.79111692      -1.79111692      -1.79111692
C       -3.17904256      -1.69025261      -1.70282320
C       -3.98915334      -2.48562404      -2.52004403
C       -3.41061488      -3.38370764      -3.42908250
C       -2.01210903      -3.48112814      -3.49924411
C       -1.20327406      -2.68675380      -2.68148385
C       -4.21462545      -4.23068883      -4.35292418
O       -3.71151958      -4.99173522      -5.16518221
O       -5.56545188      -3.98198533      -4.16176846
C       -6.55590644      -4.61782231      -4.93701300
C       -7.72055546      -3.88397818      -5.15492770
C       -8.77416539      -4.45560130      -5.87260167
C       -8.67350725      -5.76394357      -6.37247751
C       -7.49677506      -6.48864823      -6.14219490
C       -6.44545215      -5.92158447      -5.41104415
C       -9.84806453      -6.32566947      -7.10968618
O      -10.87983323      -5.65780425      -7.19286212
C       -9.74736389      -7.70455097      -7.75781457
O      -11.03687683      -8.31815592      -7.87548842
C      -11.51173542      -8.82461905      -6.69362896
O      -10.86440089      -8.83060230      -5.65390800
C      -12.92463358      -9.34075420      -6.89508342
H      -13.57626603      -8.50948586      -7.18030980
C      -12.98103033     -10.47867178      -7.89701435
H       -3.63986175      -0.99165625      -1.00803757
H       -5.06891753      -2.38540840      -2.43594862
H       -1.54341312      -4.17465497      -4.19672542
H       -0.12107363      -2.77044856      -2.75322906
H       -7.81569895      -2.87433288      -4.76545527
H       -9.68144767      -3.87431198      -6.03125810
H       -7.36030188      -7.50493763      -6.49509798
H       -5.55849765      -6.51943916      -5.21891396
H       -9.07587652      -8.38476044      -7.23085605
H       -9.35856455      -7.56585429      -8.77165189
H      -12.31905325     -11.30270697      -7.60658499
H      -12.66530480     -10.14287310      -8.89038912
H      -13.99614702     -10.87990647      -7.98985951
C      -13.43991156      -9.81450018      -5.63665052
C      -13.87145687     -10.21126243      -4.58271297
Br     -14.56922913     -10.85279344      -2.87858509
C       -1.79111692       1.79111692       1.79111692
C       -1.31211094       3.02204845       2.23795897
C       -2.12310484       3.83864525       3.03307132
C       -3.41711913       3.42448642       3.38179947
C       -3.88145409       2.17831345       2.93271373
C       -3.07001470       1.36239354       2.13910346
C       -4.34385328       4.26160824       4.19277694
O       -5.48115125       3.91471178       4.47257398
O       -3.72814122       5.46006273       4.52100172
C       -4.39551013       6.46360848       5.25162314
C       -4.01359423       7.77436852       4.97149860
C       -4.58936174       8.82969908       5.68330754
C       -5.54549828       8.58281472       6.68161533
C       -5.91616664       7.25909631       6.95235525
C       -5.32947489       6.19962439       6.24898149
C       -6.10338652       9.75577871       7.42425496
O       -5.66053046      10.88096508       7.18900406
C       -7.21779632       9.54527663       8.44665649
O       -7.21255321      10.57786072       9.44010723
C       -6.22226977      10.43131093      10.37640272
O       -5.46694213       9.46790088      10.41406818
C       -6.22337002      11.63038064      11.30672053
H       -5.99956493      12.53421528      10.73228147
C       -7.52290443      11.75387630      12.07993573
H       -0.31370196       3.35839361       1.96746001
H       -1.72867160       4.79625831       3.36534464
H       -4.88244979       1.83727024       3.19507349
H       -3.44796151       0.40235854       1.79443120
H       -3.26786243       7.97908169       4.20854297
H       -4.27838775       9.84920891       5.45942108
H       -6.64256709       7.00226914       7.71550127
H       -5.61142421       5.18151459       6.50391196
H       -7.17540181       8.57378378       8.94230743
H       -8.17190312       9.61017951       7.91398810
H       -7.74209982      10.84078623      12.64545916
H       -8.36671373      11.92789185      11.40396143
H       -7.48869118      12.58820687      12.78901495
C       -5.14214825      11.50007840      12.24883560
C       -4.23662502      11.39095027      13.03785697
Br      -2.77247053      11.21449932      14.31363780
C        1.79111692      -1.79111692       1.79111692
C        3.12860964      -1.45175635       1.99175236
C        3.93470526      -2.24898874       2.81112741
C        3.40239689      -3.38817143       3.43283669
C        2.05693304      -3.72238852       3.21315971
C        1.25235284      -2.92580951       2.39334936
C        4.19536561      -4.25704420       4.34582865
O        3.72506775      -5.23262817       4.91074109
O        5.48488021      -3.76066383       4.46366163
C        6.44124552      -4.36620411       5.30329212
C        7.39014861      -3.51008501       5.85922773
C        8.40445357      -4.03208964       6.66582516
C        8.48043880      -5.41133756       6.91815197
C        7.52007072      -6.25816615       6.34938132
C        6.51104554      -5.73758342       5.52945181
C        9.60667439      -5.90798958       7.76875621
O       10.46164507      -5.11102357       8.15783096
C        9.67233486      -7.38430251       8.15309206
O       11.02013428      -7.79214008       8.41824682
C       11.76925105      -7.97560210       7.28513026
O       11.31238721      -7.88408881       6.15243515
C       13.20392322      -8.28545264       7.67109533
H       13.62665994      -7.43118246       8.20821928
C       13.31748623      -9.57197061       8.46725962
H        3.55112110      -0.56626583       1.52216865
H        4.97350108      -1.96094318       2.95583029
H        1.62537944      -4.60477295       3.68464113
H        0.20998795      -3.19586534       2.23889796
H        7.34901083      -2.44217256       5.66430370
H        9.14359480      -3.35370060       7.08972234
H        7.52843184      -7.33208829       6.49981737
H        5.80020788      -6.42220411       5.07443878
H        9.24015213      -8.04865850       7.40268238
H        9.10514494      -7.51006975       9.08085604
H       12.88417749     -10.41990573       7.92426199
H       12.78600051      -9.49124064       9.42132586
H       14.36255487      -9.81392357       8.68943456
C       13.99817933      -8.41583819       6.47704473
C       14.66336882      -8.52503609       5.47702735
Br      15.73892397      -8.70159986       3.86008383
C       -0.00445707       0.01189536      -1.78238275
H       -0.66409135       0.67374010      -2.43557963
H        0.65740317      -0.63156657      -2.45157240
C       -0.90989263      -0.90692880      -0.91072765
C        0.90977584       0.90977584      -0.90977584
C       -0.00465871       1.77757030       0.00794375
H       -0.66225468       2.44313916      -0.64384735
H        0.64322798       2.43503045       0.67728295
C       -1.78241447       0.00034974      -0.00472694
H       -2.45427497      -0.65498947       0.64260836
H       -2.43311707       0.67328779      -0.65473579
C       -0.91132561       0.90220522       0.91563759
C       -0.01476271      -0.02253852       1.78660255
H       -0.67934791      -0.69751639       2.42135241
H        0.63392994       0.61504881       2.47327442
C        0.01484550      -1.77751727      -0.01636693
H        0.67870853      -2.42144646      -0.68295456
H       -0.62264859      -2.45592969       0.64226336
C        1.78714474       0.01002794       0.00389507
H        2.44202412       0.67113390       0.66197326
H        2.45385902      -0.65136977      -0.64189061
C        0.91606151      -0.90478549       0.90901405
