174
Properties=species:S:1:pos:R:3 pbc="F F F"
C        1.79238241       1.79238241      -1.79238241
C        1.71366999       1.68353890      -3.17756783
C        2.52161885       2.49513526      -3.97942154
C        3.41556060       3.41840692      -3.41356180
C        3.46940762       3.51377671      -2.01429752
C        2.66567825       2.70420718      -1.20461972
C        4.25471810       4.27874202      -4.27230856
C        5.51591174       4.63583359      -3.95814033
C        5.96778683       5.47653674      -5.04956385
C        7.11299071       6.38721356      -4.99356242
C        6.92337998       7.77536490      -4.98988343
C        8.01662316       8.64108828      -4.91613716
C        9.30517746       8.11515330      -4.84129330
Br      10.79035272       9.28280083      -4.74503133
C        9.51034526       6.73575715      -4.83498222
C        8.41293930       5.87395638      -4.90443692
N        4.92285400       5.54776870      -5.97260169
N        3.74603077       4.73643430      -5.44794642
C        4.90253542       6.09898739      -7.28067156
C        3.66998173       6.37825038      -7.90171062
C        3.59294710       6.91758413      -9.19053720
C        4.76163705       7.18359562      -9.89279702
C        5.98539142       6.89812438      -9.30037525
F        7.11313441       7.13900735      -9.98598064
C        6.06318206       6.35986877      -8.01769592
H        1.03296101       0.98310163      -3.64994069
H        2.46018316       2.41451195      -5.06313842
H        4.13087757       4.24026742      -1.55038611
H        2.72755453       2.80388677      -0.12597057
H        6.09019208       4.38815989      -3.08571495
H        5.91033095       8.16989531      -5.05081985
H        7.84619057       9.71294131      -4.92068207
H       10.51153475       6.32014888      -4.77974415
H        8.56467947       4.79712301      -4.90644978
H        2.75314804       6.17220822      -7.35332275
H        2.62183069       7.11956476      -9.62985504
H        4.72974954       7.59840176     -10.89288387
H        7.03945189       6.11948478      -7.61916630
C       -1.79238241      -1.79238241      -1.79238241
C       -2.82779439      -2.52600399      -1.22097834
C       -3.63303562      -3.32944119      -2.03369886
C       -3.41557749      -3.41355192      -3.41839990
C       -2.36987732      -2.65732642      -3.97027812
C       -1.55835143      -1.85220820      -3.16394553
C       -4.28147673      -4.25665954      -4.26763242
C       -3.83020562      -4.94397742      -5.33570262
C       -4.98923665      -5.62184099      -5.88280979
C       -5.07809233      -6.18361463      -7.23205973
C       -5.89719161      -5.59002039      -8.20141631
C       -5.96435547      -6.11634732      -9.49314581
C       -5.20498000      -7.23917670      -9.81746736
Br      -5.29462365      -7.95905154     -11.56450969
C       -4.37797684      -7.83650133      -8.86660646
C       -4.31098404      -7.30334831      -7.57700024
N       -6.07627751      -5.29805489      -5.06889199
N       -5.60355977      -4.36162362      -3.96522808
C       -7.39532396      -5.82283537      -5.06403504
C       -8.42334434      -5.12184223      -4.40475615
C       -9.73919834      -5.59607768      -4.36579242
C      -10.05269068      -6.79847539      -4.98686362
C       -9.04619052      -7.51035430      -5.62734623
F       -9.34617173      -8.68005253      -6.21189814
C       -7.73543309      -7.03972766      -5.66558600
H       -3.02685417      -2.48386921      -0.15527995
H       -4.44554094      -3.90205861      -1.59023397
H       -2.19780743      -2.68088699      -5.04283669
H       -0.76006767      -1.27659908      -3.62074513
H       -2.83643186      -4.98858370      -5.73905136
H       -6.48543027      -4.71448944      -7.93112641
H       -6.61022675      -5.64350022     -10.22608699
H       -3.78638500      -8.71275593      -9.11228683
H       -3.67344088      -7.76695099      -6.82786038
H       -8.18081600      -4.17910614      -3.91875688
H      -10.50065741      -5.02214822      -3.84844486
H      -11.06277875      -7.18919259      -4.96906384
H       -6.98276739      -7.65231661      -6.14301897
C       -1.79238241       1.79238241       1.79238241
C       -1.58365412       1.82314305       3.16797955
C       -2.39247960       2.63412879       3.96956728
C       -3.41600515       3.41819291       3.41333124
C       -3.60001558       3.37489038       2.02257588
C       -2.79624693       2.56480329       1.21345494
C       -4.25547719       4.28021621       4.27007529
C       -5.56743543       4.49488224       4.04756798
C       -6.00077595       5.39322410       5.09988737
C       -7.22798579       6.19150987       5.07427103
C       -7.17241788       7.58420595       4.93200448
C       -8.34536222       8.34073697       4.88774940
C       -9.57960836       7.70014435       4.98187136
Br     -11.17191372       8.71989742       4.92637374
C       -9.65230476       6.31382826       5.11495161
C       -8.47597849       5.56114018       5.15421393
N       -4.89116517       5.64248714       5.90957207
N       -3.69248956       4.89018733       5.34773459
C       -4.80987513       6.31539399       7.15692526
C       -3.56024115       6.75850131       7.63120027
C       -3.42324795       7.42271658       8.85510391
C       -4.54652119       7.65185329       9.63965521
C       -5.78435265       7.20607791       9.19346049
F       -6.86607479       7.41226669       9.95978091
C       -5.92166428       6.54345131       7.97563117
H       -0.80091563       1.23263567       3.63245203
H       -2.22975456       2.66267605       5.04540292
H       -4.36542064       3.99371046       1.56240000
H       -2.96078274       2.55559758       0.14103155
H       -6.18912581       4.11634527       3.25859583
H       -6.20007911       8.06923656       4.86173045
H       -8.27798885       9.41888903       4.78293607
H      -10.61038147       5.80946804       5.19157826
H       -8.52377162       4.48029710       5.26418354
H       -2.67906834       6.58160637       7.01800430
H       -2.44129826       7.74918001       9.18077223
H       -4.46752315       8.16117190      10.59234012
H       -6.90152600       6.18233985       7.69423711
C        1.79238241      -1.79238241       1.79238241
C        2.91953098      -2.40374504       1.25150070
C        3.72409771      -3.20776913       2.06430882
C        3.41521923      -3.41378086       3.41852922
C        2.27749377      -2.77917018       3.94081791
C        1.46609038      -1.97441694       3.13399783
C        4.28055353      -4.25572950       4.26948566
C        3.80834979      -5.05391369       5.24762218
C        4.97406888      -5.68725062       5.83256792
C        5.00918353      -6.34361350       7.14096965
C        5.70856594      -5.76945155       8.21061082
C        5.72349241      -6.38768060       9.46267558
C        5.03172258      -7.58364652       9.64625496
Br       5.05134176      -8.42785836      11.33898475
C        4.32344399      -8.16351049       8.59413014
C        4.30800915      -7.53864477       7.34467868
N        6.08836022      -5.22467529       5.13018888
N        5.62503838      -4.24215328       4.06321982
C        7.44090789      -5.65175208       5.18953440
C        8.45634343      -4.83021583       4.66338347
C        9.80425914      -5.20462603       4.69218327
C       10.16429702      -6.42581249       5.24792019
C        9.17244727      -7.25518392       5.75625986
F        9.51914093      -8.44200278       6.27697869
C        7.82993002      -6.88394184       5.72687491
H        3.19051708      -2.26539797       0.21008828
H        4.60800110      -3.68484483       1.64498760
H        2.03142404      -2.89764338       4.99246368
H        0.59514436      -1.49437671       3.56789080
H        2.79466249      -5.20051583       5.56888859
H        6.24535579      -4.83582836       8.04986197
H        6.27684412      -5.92776004      10.27520979
H        3.78513692      -9.09619518       8.73009567
H        3.76338579      -7.98752670       6.51733977
H        8.17723510      -3.87258807       4.22885584
H       10.55425445      -4.53947538       4.27752067
H       11.20018764      -6.74068682       5.28016071
H        7.09451811      -7.58382931       6.09975554
C       -0.00445707       0.01189536      -1.78238275
H       -0.66409135       0.67374010      -2.43557963
H        0.65740317      -0.63156657      -2.45157240
C       -0.90989263      -0.90692880      -0.91072765
C        0.90977584       0.90977584      -0.90977584
C       -0.00465871       1.77757030       0.00794375
H       -0.66225468       2.44313916      -0.64384735
H        0.64322798       2.43503045       0.67728295
C       -1.78241447       0.00034974      -0.00472694
H       -2.45427497      -0.65498947       0.64260836
H       -2.43311707       0.67328779      -0.65473579
C       -0.91132561       0.90220522       0.91563759
C       -0.01476271      -0.02253852       1.78660255
H       -0.67934791      -0.69751639       2.42135241
H        0.63392994       0.61504881       2.47327442
C        0.01484550      -1.77751727      -0.01636693
H        0.67870853      -2.42144646      -0.68295456
H       -0.62264859      -2.45592969       0.64226336
C        1.78714474       0.01002794       0.00389507
H        2.44202412       0.67113390       0.66197326
H        2.45385902      -0.65136977      -0.64189061
C        0.91606151      -0.90478549       0.90901405
