153
Properties=species:S:1:pos:R:3 pbc="F F F"
C        0.00000000       0.00000000       0.00000000
C        0.88247839       0.88247839      -0.88247839
C        0.80376597       0.77363488      -2.26766381
C        1.61171483       1.58523124      -3.06951752
C        2.50565657       2.50850289      -2.50365777
C        2.55950359       2.60387269      -1.10439349
C        1.75577423       1.79430315      -0.29471570
C        3.34481408       3.36883800      -3.36240453
C        4.60600771       3.72592956      -3.04823631
C        5.05788280       4.56663271      -4.13965983
C        6.20308669       5.47730953      -4.08365840
C        6.01347595       6.86546088      -4.07997941
C        7.10671913       7.73118425      -4.00623314
C        8.39527343       7.20524928      -3.93138928
Br       9.88044869       8.37289681      -3.83512730
C        8.60044124       5.82585312      -3.92507819
C        7.50303527       4.96405236      -3.99453289
N        4.01294998       4.63786467      -5.06269767
N        2.83612674       3.82653027      -4.53804240
C        3.99263140       5.18908336      -6.37076754
C        2.76007770       5.46834635      -6.99180660
C        2.68304308       6.00768010      -8.28063318
C        3.85173303       6.27369160      -8.98289299
C        5.07548740       5.98822036      -8.39047123
F        6.20323038       6.22910333      -9.07607662
C        5.15327804       5.44996475      -7.10779190
H        0.12305699       0.07319761      -2.74003666
H        1.55027914       1.50460793      -4.15323439
H        3.22097355       3.33036340      -0.64048209
H        1.81765050       1.89398275       0.78393345
H        5.18028805       3.47825587      -2.17581092
H        5.00042693       7.25999129      -4.14091583
H        6.93628654       8.80303729      -4.01077805
H        9.60163072       5.41024485      -3.86984012
H        7.65477545       3.88721898      -3.99654575
H        1.84324401       5.26230420      -6.44341873
H        1.71192667       6.20966074      -8.71995102
H        3.81984551       6.68849773      -9.98297985
H        6.12954787       5.20958075      -6.70926227
C       -0.88247839      -0.88247839      -0.88247839
C       -2.25535442      -0.93020085      -0.65950939
C       -3.05755792      -1.73734821      -1.47155746
C       -2.50391235      -2.50526486      -2.50864002
C       -1.11785115      -2.43270163      -2.71721700
C       -0.30771798      -1.62892417      -1.90815093
C       -3.36432360      -3.34442887      -3.36730414
C       -2.98402085      -4.54270077      -3.85345196
C       -4.10413994      -5.01841837      -4.64161703
C       -4.03626457      -6.08012256      -5.64766748
C       -4.16507952      -5.78305287      -7.01078385
C       -4.07982524      -6.79514929      -7.96916199
C       -3.86026882      -8.10984682      -7.56179635
Br      -3.74763154      -9.48577559      -8.85506567
C       -3.72105751      -8.42083938      -6.20947566
C       -3.80270640      -7.40393782      -5.25497630
N       -5.10867064      -4.05312377      -4.55171790
N       -4.61064858      -2.90303542      -3.68701540
C       -6.45633229      -4.10076554      -4.99538448
C       -7.19316235      -2.90725596      -5.11981234
C       -8.52513093      -2.89785673      -5.54836870
C       -9.15398694      -4.09750814      -5.85682254
C       -8.44574445      -5.28518751      -5.72324702
F       -9.05912494      -6.44471565      -6.00456974
C       -7.11991450      -5.29577457      -5.29534562
H       -2.71837092      -0.34876918       0.13084884
H       -4.13201711      -1.77447552      -1.30162884
H       -0.66695054      -2.99370498      -3.53116351
H        0.76012644      -1.59117582      -2.09665042
H       -2.05156654      -5.05854889      -3.72423941
H       -4.33816699      -4.75110816      -7.31205890
H       -4.18850171      -6.54252900      -9.01907117
H       -3.55277002      -9.44313271      -5.88581296
H       -3.70158169      -7.63893505      -4.19802344
H       -6.70256669      -1.96614137      -4.88025888
H       -9.05448271      -1.95467484      -5.63238087
H      -10.18505899      -4.11820649      -6.18805762
H       -6.62742154      -6.25053198      -5.17043737
C       -0.88247839       0.88247839       0.88247839
C       -1.34773732       0.39656859       2.10075873
C       -2.15250637       1.20935992       2.90459731
C       -2.50418514       2.50871905       2.50491304
C       -2.01505211       2.97714019       1.27557748
C       -1.21066126       2.16973770       0.46439412
C       -3.34501583       3.36171059       3.36933020
C       -4.26409937       4.22429652       2.89177770
C       -4.84920016       4.85746436       4.05751083
C       -5.61539217       6.10514792       4.04351453
C       -5.08402502       7.27700653       4.59788468
C       -5.80896744       8.47010234       4.56506674
C       -7.06953204       8.49153448       3.97084547
Br      -8.05799861      10.10379858       3.92667561
C       -7.60886668       7.33579163       3.40671425
C       -6.87761398       6.14579099       3.43821555
N       -4.23508095       4.29863500       5.17979636
N       -3.20216804       3.27897220       4.71955917
C       -4.55280971       4.44392535       6.55574724
C       -3.60640149       4.08071143       7.53311773
C       -3.86949268       4.19960916       8.90225452
C       -5.10184266       4.68289794       9.32357702
C       -6.05248210       5.02990805       8.37178883
F       -7.24867298       5.48007359       8.77966376
C       -5.79203776       4.91065369       7.00834324
H       -1.09446279      -0.60130240       2.44313087
H       -2.51546062       0.83330508       3.85935576
H       -2.24746721       3.98904636       0.95530546
H       -0.84500648       2.56166472      -0.47897140
H       -4.52204972       4.43994960       1.87235552
H       -4.09867229       7.24267619       5.05998556
H       -5.37991271       9.36422835       5.00596082
H       -8.59118498       7.34546465       2.94506606
H       -7.29366206       5.23866544       3.00621269
H       -2.63986775       3.70327655       7.20582264
H       -3.11020615       3.91029696       9.62103532
H       -5.33187295       4.78206759      10.37738256
H       -6.58084342       5.15694348       6.31060398
C        0.88247839      -0.88247839       0.88247839
C        1.43496436      -2.04868376       0.36141652
C        2.24325910      -2.85041748       1.17278701
C        2.50716338      -2.50313502       2.50751884
C        1.94426933      -1.31783514       3.00566531
C        1.13294041      -0.51079384       2.20105883
C        3.37298979      -3.35262961       3.35043722
C        3.16413606      -3.54846115       4.66757638
C        4.23120463      -4.42645717       5.10651354
C        4.63956952      -4.62608540       6.49839969
C        5.86559593      -4.13128304       6.96203727
C        6.24326467      -4.30578918       8.29508267
C        5.38813331      -4.97464870       9.16912998
Br       5.89582976      -5.21750094      10.97514210
C        4.16046125      -5.46542908       8.72548223
C        3.78539913      -5.28428288       7.39193852
N        5.01148858      -4.71627723       3.98574651
N        4.43581214      -3.98306764       2.78181963
C        6.06962365      -5.65020194       3.83265671
C        6.94506374      -5.53992011       2.73524680
C        8.00114605      -6.43563734       2.53457297
C        8.19840902      -7.47491182       3.43499678
C        7.33314093      -7.60722927       4.51380878
F        7.51371034      -8.62143517       5.37326482
C        6.28050490      -6.71672597       4.71380381
H        1.25481926      -2.34739728      -0.66592528
H        2.67928709      -3.76155056       0.76728381
H        2.15584484      -1.01000446       4.02596973
H        0.71514733       0.40144485       2.61399732
H        2.39544300      -3.14195008       5.29696175
H        6.52282670      -3.61275357       6.26575377
H        7.20028484      -3.91918979       8.63062724
H        3.49146283      -5.98962502       9.40062785
H        2.83259092      -5.66949388       7.03645538
H        6.79367940      -4.72597686       2.02931068
H        8.65323261      -6.31182153       1.67648428
H        9.00660087      -8.18355210       3.30117013
H        5.61277735      -6.88854414       5.54706940
