182
Properties=species:S:1:pos:R:3 pbc="F F F"
C        1.79238241       1.79238241      -1.79238241
C        1.71366999       1.68353890      -3.17756783
C        2.52161885       2.49513526      -3.97942154
C        3.41556060       3.41840692      -3.41356180
C        3.46940762       3.51377671      -2.01429752
C        2.66567825       2.70420718      -1.20461972
C        4.25471810       4.27874202      -4.27230856
C        5.51591174       4.63583359      -3.95814033
C        5.96778683       5.47653674      -5.04956385
C        7.11299071       6.38721356      -4.99356242
C        6.92337998       7.77536490      -4.98988343
C        8.01662316       8.64108828      -4.91613716
C        9.30517746       8.11515330      -4.84129330
C        9.51034526       6.73575715      -4.83498222
C        8.41293930       5.87395638      -4.90443692
N        4.92285400       5.54776870      -5.97260169
N        3.74603077       4.73643430      -5.44794642
C        4.90253542       6.09898739      -7.28067156
C        3.66998173       6.37825038      -7.90171062
C        3.59294710       6.91758413      -9.19053720
C        4.76163705       7.18359562      -9.89279702
C        5.98539142       6.89812438      -9.30037525
F        7.11313441       7.13900735      -9.98598064
C        6.06318206       6.35986877      -8.01769592
H        1.03296101       0.98310163      -3.64994069
H        2.46018316       2.41451195      -5.06313842
H        4.13087757       4.24026742      -1.55038611
H        2.72755453       2.80388677      -0.12597057
H        6.09019208       4.38815989      -3.08571495
H        5.91033095       8.16989531      -5.05081985
H        7.84619057       9.71294131      -4.92068207
H       10.51153475       6.32014888      -4.77974415
H        8.56467947       4.79712301      -4.90644978
H        2.75314804       6.17220822      -7.35332275
H        2.62183069       7.11956476      -9.62985504
H        4.72974954       7.59840176     -10.89288387
H        7.03945189       6.11948478      -7.61916630
C       10.43574103       9.00400447      -4.76801556
C       11.38258801       9.74841732      -4.70664546
Br      12.91355951      10.95206993      -4.60741519
C       -1.79238241      -1.79238241      -1.79238241
C       -2.84884481      -2.49963869      -1.22629323
C       -3.65393524      -3.30319947      -2.03904096
C       -3.41549845      -3.41359891      -3.41843195
C       -2.34869474      -2.68358996      -3.96519716
C       -1.53719023      -1.87855550      -3.15875943
C       -4.28129244      -4.25643830      -4.26803794
C       -3.82415974      -4.96845871      -5.31726721
C       -4.98517969      -5.63637921      -5.87232852
C       -5.06141069      -6.21877096      -7.21358503
C       -5.85482623      -5.62802631      -8.20577577
C       -5.90971915      -6.17438532      -9.48974412
C       -5.16377479      -7.31454897      -9.78330030
C       -4.36221939      -7.90945542      -8.80940982
C       -4.30735075      -7.35630431      -7.52767753
N       -6.07978065      -5.28168230      -5.08176144
N       -5.60964712      -4.33499023      -3.98577413
C       -7.40719122      -5.78488508      -5.09011808
C       -8.43407527      -5.05658245      -4.45928500
C       -9.75801460      -5.50874401      -4.43430983
C      -10.08115668      -6.71596705      -5.04090597
C       -9.07627062      -7.45449473      -5.65312570
F       -9.38595831      -8.62864472      -6.22351937
C       -7.75749762      -7.00584658      -5.67740256
H       -3.06441374      -2.43675221      -0.16483738
H       -4.48282893      -3.85520948      -1.59979512
H       -2.15969172      -2.72758307      -5.03425632
H       -0.72224915      -1.32354378      -3.61161894
H       -2.82485404      -5.03578271      -5.70343017
H       -6.43287470      -4.73875547      -7.95941595
H       -6.53576821      -5.70326947     -10.24077627
H       -3.78122903      -8.79909897      -9.03109976
H       -3.68973774      -7.81777675      -6.76073776
H       -8.18396483      -4.11002585      -3.98468833
H      -10.51820154      -4.91412331      -3.93892565
H      -11.09769432      -7.08993188      -5.03340898
H       -7.00738428      -7.63831715      -6.13240153
C       -5.21948165      -7.88317826     -11.10510114
C       -5.26613615      -8.35940528     -12.21210936
Br      -5.34157253      -9.12942410     -14.00204801
C       -1.79238241       1.79238241       1.79238241
C       -1.61354943       1.78870488       3.17252242
C       -2.42216783       2.59984638       3.97416146
C       -3.41589855       3.41824979       3.41338097
C       -3.56996158       3.40917249       2.01834778
C       -2.76621129       2.59920438       1.20908949
C       -4.25526450       4.27988808       4.27061610
C       -5.55701521       4.52832383       4.02454662
C       -5.99398863       5.41303278       5.08686601
C       -7.20274793       6.23866597       5.05235279
C       -7.11388458       7.63254519       4.94219853
C       -8.26889627       8.41564579       4.88930653
C       -9.51851223       7.80065297       4.94245886
C       -9.62415420       6.41372899       5.04320143
C       -8.46556840       5.63450276       5.09126144
N       -4.89744017       5.62006351       5.92572071
N       -3.70319645       4.85375282       5.37346221
C       -4.82923278       6.26382430       7.18913730
C       -3.58110146       6.66877195       7.70006932
C       -3.45688667       7.30311985       8.94106191
C       -4.59202998       7.54002388       9.70597583
C       -5.82904407       7.13153975       9.22330723
F       -6.92274967       7.34498171       9.97039103
C       -5.95367722       6.49865521       7.98841433
H       -0.85426491       1.17108534       3.64065308
H       -2.28272598       2.60146934       5.05363821
H       -4.31140276       4.05461422       1.55551413
H       -2.90711958       2.61687986       0.13341243
H       -6.16913675       4.18082789       3.21410228
H       -6.12994852       8.09733375       4.90376385
H       -8.17587688       9.49405914       4.80987793
H      -10.59439449       5.92916665       5.08786662
H       -8.53918943       4.55285438       5.17620844
H       -2.69060513       6.48573347       7.10234042
H       -2.47554737       7.60062672       9.29507640
H       -4.52313232       8.02670948      10.67119338
H       -6.93466060       6.16551154       7.67793082
C      -10.71229212       8.60430606       4.89116287
C      -11.71208278       9.27736553       4.84820248
Br     -13.32865972      10.36564575       4.77873916
C        1.79238241      -1.79238241       1.79238241
C        2.95583074      -2.34918820       1.26975778
C        3.76011600      -3.15348511       2.08257454
C        3.41506587      -3.41389172       3.41857172
C        2.24087840      -2.83358647       3.92301698
C        1.42954813      -2.02897761       3.11597941
C        4.28008740      -4.25539013       4.27029116
C        3.80347272      -5.10014197       5.20627097
C        4.97017624      -5.71485640       5.80885477
C        4.98509767      -6.41262453       7.09604449
C        5.63056967      -5.85204054       8.20601810
C        5.62586602      -6.51049966       9.43748291
C        4.96846534      -7.73338597       9.55977275
C        4.31373481      -8.30052906       8.46682076
C        4.31762782      -7.63554287       7.23816190
N        6.09046830      -5.19393605       5.15882005
N        5.62929777      -4.19202199       4.10909172
C        7.45379622      -5.57927141       5.24912674
C        8.45784374      -4.70875240       4.78334659
C        9.81578156      -5.04061593       4.84467095
C       10.19800907      -6.26735654       5.37266408
C        9.21835077      -7.14435988       5.82118041
F        9.58723261      -8.33603915       6.31485064
C        7.86592906      -6.81546916       5.75934853
H        3.25526119      -2.16791977       0.24282236
H        4.67225317      -3.58793986       1.67764050
H        1.96535422      -2.99454335       4.96163353
H        0.52979075      -1.59162850       3.53599262
H        2.78542716      -5.28961645       5.48902330
H        6.14109053      -4.89692952       8.09302607
H        6.13745711      -6.06021251      10.28214432
H        3.80245983      -9.25393239       8.55503555
H        3.81486460      -8.07403489       6.37935276
H        8.16129081      -3.74670797       4.37068024
H       10.55627059      -4.33848803       4.47649187
H       11.24217499      -6.54983841       5.42902177
H        7.14249158      -7.55045057       6.08516082
C        4.96340939      -8.41743701      10.82691466
C        4.95917503      -8.99032975      11.88814601
Br       4.95232842      -9.91664887      13.60406734
C       -0.00445707       0.01189536      -1.78238275
H       -0.66409135       0.67374010      -2.43557963
H        0.65740317      -0.63156657      -2.45157240
C       -0.90989263      -0.90692880      -0.91072765
C        0.90977584       0.90977584      -0.90977584
C       -0.00465871       1.77757030       0.00794375
H       -0.66225468       2.44313916      -0.64384735
H        0.64322798       2.43503045       0.67728295
C       -1.78241447       0.00034974      -0.00472694
H       -2.45427497      -0.65498947       0.64260836
H       -2.43311707       0.67328779      -0.65473579
C       -0.91132561       0.90220522       0.91563759
C       -0.01476271      -0.02253852       1.78660255
H       -0.67934791      -0.69751639       2.42135241
H        0.63392994       0.61504881       2.47327442
C        0.01484550      -1.77751727      -0.01636693
H        0.67870853      -2.42144646      -0.68295456
H       -0.62264859      -2.45592969       0.64226336
C        1.78714474       0.01002794       0.00389507
H        2.44202412       0.67113390       0.66197326
H        2.45385902      -0.65136977      -0.64189061
C        0.91606151      -0.90478549       0.90901405
