153
Properties=species:S:1:pos:R:3 pbc="F F F"
C        0.00000000       0.00000000       0.00000000
C        0.88138411       0.88138411      -0.88138411
C        2.16524147       1.21032867      -0.46311050
C        2.95939806       2.04485873      -1.25555657
C        2.47954059       2.55551656      -2.46699307
C        1.20050983       2.18230522      -2.89473625
C        0.39695062       1.35781632      -2.09752884
N        3.21945558       3.43916337      -3.28218971
C        4.34025355       4.15168907      -2.89399151
O        4.84830526       4.14429384      -1.77701384
C        4.93812400       5.03493671      -3.94982111
C        6.00667464       5.85087906      -3.57052413
C        6.60689788       6.65802253      -4.52327832
C        6.13200711       6.61508596      -5.82407159
C        5.05852388       5.77224394      -6.12744866
N        4.41980872       4.97846175      -5.21489887
C        4.61143771       5.71958259      -7.55969016
O        5.23074705       6.37420788      -8.39152540
N        3.49910522       4.93443755      -7.80801378
C        2.92261562       4.68191876      -9.07219372
C        3.54642068       5.01199501     -10.28228585
C        2.92707424       4.74466399     -11.50748273
C        1.67309940       4.14523444     -11.52946462
Br       0.82842634       3.79942751     -13.18406057
C        1.04185410       3.79944563     -10.33693442
C        1.67066421       4.05938280      -9.11314160
H        2.56211405       0.83413057       0.47665615
H        3.96091675       2.26847146      -0.89929638
H        0.79608220       2.55382357      -3.83199420
H       -0.60686920       1.10350884      -2.42747975
H        2.85805333       3.65864199      -4.20313802
H        6.37087610       5.85395492      -2.54632732
H        7.44176662       7.30106993      -4.25801413
H        6.59713907       7.22329275      -6.59401284
H        3.04020200       4.55203288      -6.98876503
H        4.53147590       5.46683022     -10.31235729
H        3.43759159       5.01053909     -12.42988197
H        0.06076116       3.33243015     -10.35052275
H        1.15376489       3.78674499      -8.19571980
C       -0.88138411      -0.88138411      -0.88138411
C       -0.30576885      -1.63720810      -1.89570370
C       -1.11791264      -2.41829679      -2.72360393
C       -2.50571258      -2.45046770      -2.54586994
C       -3.06639153      -1.71659186      -1.49456790
C       -2.25800511      -0.92243242      -0.67185824
N       -3.37662636      -3.18294983      -3.38123247
C       -3.05948790      -3.70268525      -4.62376097
O       -1.98262999      -3.58644218      -5.20054077
C       -4.17132091      -4.43399154      -5.31756937
C       -3.92703530      -4.88363814      -6.61740439
C       -4.91677075      -5.59044875      -7.28097923
C       -6.11066007      -5.83755042      -6.62295417
C       -6.28104235      -5.35553303      -5.32164111
N       -5.34248661      -4.63230685      -4.63837587
C       -7.56999981      -5.69161175      -4.62909890
O       -8.38116978      -6.40230345      -5.21300711
N       -7.73457727      -5.13367617      -3.37330310
C       -8.82847299      -5.34315094      -2.50510417
C       -9.79365188      -6.33769476      -2.70935491
C      -10.86135087      -6.49766702      -1.82020306
C      -10.97184192      -5.65810565      -0.71785089
Br     -12.42355704      -5.86272927       0.47437189
C      -10.01582409      -4.67064147      -0.49176859
C       -8.94285810      -4.52137441      -1.37895610
H        0.76870026      -1.62646762      -2.06182111
H       -0.62837026      -3.00351389      -3.49680046
H       -4.13883967      -1.72132934      -1.32173095
H       -2.71184929      -0.33199345       0.11972335
H       -4.34956435      -3.26137664      -3.10889235
H       -2.97519336      -4.69040995      -7.10555503
H       -4.75415158      -5.95501269      -8.29168641
H       -6.89536190      -6.40571068      -7.11337208
H       -7.01588139      -4.47846422      -3.08665430
H       -9.73810572      -7.02481679      -3.54774091
H      -11.59329815      -7.28025225      -2.00446225
H      -10.10024639      -4.01144824       0.36798057
H       -8.21369402      -3.73797961      -1.18455605
C       -0.88138411       0.88138411       0.88138411
C       -1.68916099       0.29882322       1.85069644
C       -2.52081058       1.10420749       2.63479530
C       -2.55229462       2.49209925       2.45765635
C       -1.70314950       3.06818866       1.50621314
C       -0.87886581       2.26382957       0.70960040
N       -3.40650873       3.34673858       3.18756135
C       -4.50788870       2.95183956       3.92620587
O       -4.92541176       1.80362198       4.04057919
C       -5.25999180       4.06089222       4.60199780
C       -6.43771624       3.71926925       5.27109233
C       -7.14494410       4.70894892       5.93430571
C       -6.64837263       6.00226055       5.92053148
C       -5.46226583       6.26677315       5.22917751
N       -4.74563437       5.32733576       4.54019921
C       -4.93459456       7.67120609       5.28490981
O       -5.53625822       8.49695212       5.96327000
N       -3.80215162       7.91258994       4.52681498
C       -3.08946419       9.12977033       4.45749358
C       -3.30525020      10.19906202       5.33638933
C       -2.57455663      11.38583489       5.21882942
C       -1.62116724      11.51154371       4.21508751
Br      -0.64574466      13.12102023       4.04514953
C       -1.38444881      10.45515804       3.33862731
C       -2.11101910       9.26510059       3.46706892
H       -1.69086455      -0.77730954       2.00603346
H       -3.12770054       0.61176764       3.38921642
H       -1.69534298       4.14231381       1.34424318
H       -0.24924876       2.72291150      -0.04804087
H       -3.27651178       4.34754092       3.09578064
H       -6.79738866       2.69350955       5.28026013
H       -8.06287828       4.47234921       6.46562319
H       -7.17310374       6.79276845       6.44857246
H       -3.49845357       7.14689986       3.93564648
H       -4.02828496      10.13871466       6.14366380
H       -2.76325405      12.19717955       5.91757905
H       -0.64119054      10.55081906       2.55170447
H       -1.91291268       8.45768880       2.76562819
C        0.88138411      -0.88138411       0.88138411
C        1.11485941      -0.52074330       2.20307793
C        1.94916230      -1.31098661       2.99966446
C        2.55454920      -2.46287747       2.48462355
C        2.27723168      -2.83565823       1.16466138
C        1.45317681      -2.03957538       0.35954359
N        3.44209614      -3.26997378       3.22873874
C        4.06859348      -2.90889707       4.40844357
O        3.96879542      -1.82527115       4.97554636
C        4.97743682      -3.94766408       4.99778092
C        5.71039518      -3.58678051       6.13090214
C        6.53728238      -4.52709801       6.72381833
C        6.59573204      -5.79862774       6.17680488
C        5.83183577      -6.08501827       5.04136245
N        5.02269931      -5.18181922       4.40865082
C        5.88667760      -7.48971977       4.51431309
O        6.55348951      -8.31894862       5.12404221
N        5.17923403      -7.71582777       3.34649474
C        5.03220501      -8.95644389       2.68807919
C        5.39714200     -10.18073970       3.26281985
C        5.23543586     -11.38082658       2.56295851
C        4.70776686     -11.36295722       1.27707439
Br       4.50500712     -12.98233240       0.32457489
C        4.32859044     -10.15659641       0.69304730
C        4.48248984      -8.95886118       1.40183759
H        0.66376546       0.37249677       2.62831978
H        2.09667119      -1.00158459       4.03042883
H        2.72392879      -3.72621631       0.73175486
H        1.27367400      -2.32429732      -0.67385193
H        3.73393920      -4.15507955       2.83081459
H        5.63427190      -2.58674362       6.55014281
H        7.11727482      -4.27581848       7.60775738
H        7.22112367      -6.55977579       6.63354519
H        4.77573349      -6.89353917       2.91172726
H        5.79839642     -10.24284337       4.26942362
H        5.52592311     -12.31529852       3.03679101
H        3.91750427     -10.13890937      -0.31269957
H        4.18589845      -8.02935143       0.92097979
