182
Properties=species:S:1:pos:R:3 pbc="F F F"
C        9.61406600       5.99984260      -3.75775115
O        8.26660013       5.53117805      -3.79508818
C        7.69258975       5.57374801      -5.03703348
O        8.27544185       5.96769416      -6.03785858
C        6.30127206       5.10888198      -5.00984699
C        5.63524007       4.56946557      -3.88326937
C        4.34848830       4.20980209      -4.23699676
C        3.42513286       3.40355951      -3.41400976
C        2.61378670       2.40782826      -3.97723778
C        1.78888999       1.61446970      -3.17231440
C        1.79130130       1.79130130      -1.79130130
C        2.60225143       2.75988454      -1.20846928
C        3.41018926       3.56369862      -2.01807514
N        4.13120936       4.69862296      -5.53641796
C        2.84237816       4.87243545      -6.15636411
C        1.74047701       5.23572113      -5.36185991
C        0.47725105       5.43130807      -5.93099278
C        0.30777574       5.28352131      -7.30294255
C        1.38700410       4.93050207      -8.10696026
C        2.64785769       4.71703635      -7.53436712
C        5.38344533       5.07023204      -6.06306177
C        5.62140198       5.45561804      -7.48805151
H        9.94708770       5.98667529      -2.71627740
H        9.67861930       7.02864835      -4.12612310
H       10.26275456       5.33705924      -4.33830506
H        6.09085630       4.38495876      -2.91749067
H        2.61936897       2.22728089      -5.04963361
H        1.16150002       0.85624536      -3.63338708
H        2.62240635       2.89407651      -0.13019829
H        4.03892472       4.31280817      -1.54144955
H        1.84402501       5.40407268      -4.29229908
H       -0.35951462       5.70719377      -5.29440329
H        1.25958252       4.80909345      -9.18004361
H        3.43796602       4.38603724      -8.19728107
H        6.62287396       5.85394036      -7.65833925
H        4.92414372       6.23017167      -7.81838541
H        5.54063598       4.57500792      -8.13326116
C       -0.98870682       5.49354857      -7.89338434
C       -2.07451097       5.66944641      -8.38787934
Br      -3.83016445       5.95385833      -9.18743593
C       -5.18333276      -4.35301226      -9.83531472
O       -4.90724906      -4.24641101      -8.43920629
C       -5.21330341      -5.37012118      -7.71994665
O       -5.67465195      -6.38727007      -8.21907257
C       -4.93690227      -5.19314765      -6.28995112
C       -4.32488347      -4.05931345      -5.70377810
C       -4.19568478      -4.25752564      -4.34207672
C       -3.40230911      -3.41707609      -3.42331693
C       -2.61931904      -3.97649452      -2.40303918
C       -1.82835284      -3.16701263      -1.58030861
C       -1.79130130      -1.79130130      -1.79130130
C       -2.54476960      -1.21619186      -2.80964379
C       -3.34892149      -2.02630636      -3.61673517
N       -4.90066610      -5.43304282      -4.03254137
C       -5.33479387      -5.82151250      -2.71487135
C       -5.71488662      -4.82790506      -1.79526637
C       -6.15924925      -5.16762645      -0.51267621
C       -6.24536082      -6.50523858      -0.14364020
C       -5.87975499      -7.50336718      -1.04134425
C       -5.41766491      -7.16224846      -2.31934780
C       -5.17995078      -6.09040090      -5.24638746
C       -5.74278902      -7.47174338      -5.35053913
H       -4.96827313      -3.38517227     -10.29659500
H       -6.23863307      -4.58827912     -10.00647856
H       -4.53697754      -5.10755300     -10.29358832
H       -3.93735780      -3.20680936      -6.24913857
H       -2.60475994      -5.05159631      -2.23992722
H       -1.23827867      -3.62307200      -0.78978179
H       -2.50963978      -0.14534828      -2.99169309
H       -3.92752548      -1.55641583      -4.40924112
H       -5.70356800      -3.77377636      -2.06305241
H       -6.44284182      -4.38051882       0.18127821
H       -5.94073512      -8.55113910      -0.75684535
H       -5.09022698      -7.97530275      -2.95575459
H       -6.02706646      -7.73838492      -6.36970219
H       -6.64350496      -7.58739229      -4.74180355
H       -4.98888493      -8.20738793      -5.05263220
C       -6.71148512      -6.85887728       1.17213630
C       -7.10186422      -7.15504969       2.27409913
Br      -7.73307420      -7.63393542       4.05587981
C       -9.86059022       4.54623990       4.96482963
O       -8.46186369       4.41962367       4.71137899
C       -7.66471393       4.94787482       5.69078250
O       -8.09994249       5.47653739       6.70451471
C       -6.24058353       4.81573940       5.36367810
C       -5.71348690       4.13353582       4.24095231
C       -4.33284780       4.18697184       4.27546751
C       -3.42132108       3.40181807       3.41956299
C       -2.25161083       2.81884614       3.92839576
C       -1.43146362       2.02911366       3.11509680
C       -1.79130130       1.79130130       1.79130130
C       -2.95708905       2.34339012       1.27012608
C       -3.76345718       3.14797537       2.08053047
N       -3.98481621       5.06819071       5.31324337
C       -2.69846065       5.69605504       5.47666203
C       -1.95476365       6.04723922       4.33605518
C       -0.70983883       6.67490689       4.45480618
C       -0.20497676       6.97414794       5.71511490
C       -0.92845084       6.64031296       6.85570263
C       -2.16673232       5.99552467       6.73700417
C       -5.14165005       5.28969819       6.08539090
C       -5.15936898       6.01027452       7.39542803
H      -10.39756965       4.15710924       4.09536150
H      -10.13837669       5.59662172       5.09839234
H      -10.14276448       3.95452599       5.84082839
H       -6.29792708       3.57979064       3.51558802
H       -1.96654469       2.96162541       4.96811337
H       -0.52471622       1.59668310       3.52973314
H       -3.25392226       2.15005335       0.24270553
H       -4.67225227       3.56709896       1.65383121
H       -2.33721919       5.86974274       3.33343484
H       -0.15246323       6.93192505       3.55769415
H       -0.53665515       6.86781606       7.84424836
H       -2.65881164       5.70521574       7.65725694
H       -6.16958774       6.20853815       7.75702769
H       -4.66259227       6.98183322       7.32827532
H       -4.68492886       5.39634781       8.16762839
C        1.07142148       7.62882788       5.84081970
C        2.14040501       8.17712233       5.94609746
Br       3.86886097       9.06366808       6.11632271
C        5.03239040      -4.48478885       9.85448049
O        4.79179029      -4.34648422       8.45459185
C        5.14900300      -5.44065950       7.71370874
O        5.62498327      -6.45844342       8.19756789
C        4.90703101      -5.23109047       6.28187955
C        4.27959422      -4.09838841       5.70999239
C        4.19341460      -4.26160445       4.34026810
C        3.40214944      -3.41765686       3.42289584
C        2.66350579      -3.96934816       2.36599878
C        1.87288849      -3.15898520       1.54380040
C        1.79130130      -1.79130130       1.79130130
C        2.50005675      -1.22468592       2.84586258
C        3.30429613      -2.03487867       3.65278823
N        4.93947333      -5.40815956       4.01861740
C        5.42034049      -5.74728325       2.70355398
C        5.79734198      -4.71810115       1.82261492
C        6.28610020      -5.00922251       0.54422919
C        6.41996835      -6.33303659       0.14123467
C        6.05817044      -7.36572182       1.00057417
C        5.55178483      -7.07356092       2.27391541
C        5.20379400      -6.09156952       5.22137561
C        5.80228014      -7.45934907       5.30344232
H        4.77756848      -3.53659637      10.33587554
H        6.08881390      -4.69576707      10.04880978
H        4.39524097      -5.26938442      10.27349346
H        3.85338575      -3.27254101       6.26737897
H        2.68373573      -5.03941965       2.17312809
H        1.31779922      -3.60858493       0.72474831
H        2.42977718      -0.16076542       3.05613854
H        3.84747995      -1.57182873       4.47387376
H        5.74897586      -3.67264663       2.11877428
H        6.56631083      -4.19538697      -0.11961537
H        6.15643866      -8.40299186       0.68928905
H        5.23007186      -7.91290290       2.87830956
H        6.06591316      -7.74671991       6.32252050
H        6.72224828      -7.53305534       4.71739719
H        5.07786344      -8.20669567       4.96434596
C        6.93177353      -6.63653240      -1.17007984
C        7.36041038      -6.89071015      -2.26830575
Br       8.05347990      -7.30169406      -4.04404414
C       -0.00445707       0.01189536      -1.78238275
H       -0.66409135       0.67374010      -2.43557963
H        0.65740317      -0.63156657      -2.45157240
C       -0.90989263      -0.90692880      -0.91072765
C        0.90977584       0.90977584      -0.90977584
C       -0.00465871       1.77757030       0.00794375
H       -0.66225468       2.44313916      -0.64384735
H        0.64322798       2.43503045       0.67728295
C       -1.78241447       0.00034974      -0.00472694
H       -2.45427497      -0.65498947       0.64260836
H       -2.43311707       0.67328779      -0.65473579
C       -0.91132561       0.90220522       0.91563759
C       -0.01476271      -0.02253852       1.78660255
H       -0.67934791      -0.69751639       2.42135241
H        0.63392994       0.61504881       2.47327442
C        0.01484550      -1.77751727      -0.01636693
H        0.67870853      -2.42144646      -0.68295456
H       -0.62264859      -2.45592969       0.64226336
C        1.78714474       0.01002794       0.00389507
H        2.44202412       0.67113390       0.66197326
H        2.45385902      -0.65136977      -0.64189061
C        0.91606151      -0.90478549       0.90901405
