161
Properties=species:S:1:pos:R:3 pbc="F F F"
C        0.00000000       0.00000000       0.00000000
C        8.70416197       5.08993857      -2.84784712
O        7.35669610       4.62127403      -2.88518416
C        6.78268572       4.66384399      -4.12712946
O        7.36553782       5.05779014      -5.12795456
C        5.39136803       4.19897795      -4.09994297
C        4.72533605       3.65956155      -2.97336535
C        3.43858427       3.29989806      -3.32709274
C        2.51522884       2.49365549      -2.50410574
C        1.70388268       1.49792424      -3.06733375
C        0.87898597       0.70456567      -2.26241037
C        0.88139727       0.88139727      -0.88139727
C        1.69234740       1.84998052      -0.29856526
C        2.50028524       2.65379459      -1.10817112
N        3.22130534       3.78871894      -4.62651394
C        1.93247414       3.96253142      -5.24646009
C        0.83057299       4.32581711      -4.45195588
C       -0.43265297       4.52140405      -5.02108876
C       -0.60212828       4.37361728      -6.39303853
C        0.47710007       4.02059805      -7.19705623
C        1.73795366       3.80713233      -6.62446310
C        4.47354131       4.16032802      -5.15315774
C        4.71149795       4.54571402      -6.57814748
H        9.03718368       5.07677126      -1.80637337
H        8.76871528       6.11874432      -3.21621908
H        9.35285054       4.42715521      -3.42840103
H        5.18095227       3.47505474      -2.00758665
H        1.70946494       1.31737687      -4.13972959
H        0.25159600      -0.05365866      -2.72348305
H        1.71250232       1.98417249       0.77970574
H        3.12902070       3.40290415      -0.63154552
H        0.93412098       4.49416866      -3.38239506
H       -1.26941864       4.79728974      -4.38449926
H        0.34967850       3.89918942      -8.27013959
H        2.52806199       3.47613321      -7.28737704
H        5.71296993       4.94403634      -6.74843522
H        4.01423970       5.32026765      -6.90848138
H        4.63073195       3.66510390      -7.22335714
C       -1.89861085       4.58364455      -6.98348032
C       -2.98441500       4.75954238      -7.47797532
Br      -4.74006847       5.04395430      -8.27753191
C       -6.91569472      -2.15634685      -7.56990610
O       -6.01295382      -2.36563416      -6.48456630
C       -5.53844557      -3.64605137      -6.38916223
O       -5.84557232      -4.54026889      -7.16544130
C       -4.64006900      -3.80945765      -5.24076231
C       -4.20424943      -2.77189030      -4.38212322
C       -3.34145700      -3.28953905      -3.43457902
C       -2.49855463      -2.49765876      -2.51677667
C       -1.17478862      -2.86276267      -2.23158938
C       -0.37333357      -2.06690287      -1.40572558
C       -0.88139727      -0.88139727      -0.88139727
C       -2.18545334      -0.48922175      -1.16621808
C       -2.98924890      -1.29722602      -1.97577603
N       -3.37981009      -4.68779886      -3.56892927
C       -2.93084417      -5.63247395      -2.57814753
C       -3.07416954      -5.31942921      -1.21474722
C       -2.66658534      -6.21939090      -0.22386359
C       -2.12871299      -7.44890214      -0.58691240
C       -1.98434723      -7.77982443      -1.93058269
C       -2.37583553      -6.87109635      -2.92261721
C       -4.01975060      -4.97770225      -4.78957421
C       -4.09201424      -6.33862777      -5.40471744
H       -7.28217669      -1.12781031      -7.51034131
H       -7.77419068      -2.83169203      -7.49779597
H       -6.39769042      -2.28580587      -8.52491049
H       -4.43980148      -1.72102509      -4.50276709
H       -0.74383926      -3.76637613      -2.65635601
H        0.64612303      -2.37638531      -1.19115811
H       -2.58502000       0.44235194      -0.77430102
H       -4.00486199      -0.97018437      -2.18842400
H       -3.53148468      -4.38665035      -0.89254967
H       -2.78380606      -5.95165460       0.82309031
H       -1.56018774      -8.73817582      -2.22064394
H       -2.18595488      -7.15510335      -3.95051402
H       -4.75824191      -6.37929528      -6.26790431
H       -4.46469053      -7.08264553      -4.69565267
H       -3.10651601      -6.63402807      -5.77864891
C       -1.71719327      -8.38150957       0.43018882
C       -1.37254550      -9.16256830       1.28201109
Br      -0.81527921     -10.42547420       2.65933566
C       -6.73434743       7.72403811       2.18356213
O       -5.84500483       6.62731073       2.39083873
C       -6.04168468       5.96144559       3.57052889
O       -6.90684017       6.26344082       4.38100152
C       -5.08237963       4.86483045       3.74307888
C       -4.13114685       4.44425509       2.78286100
C       -3.42324456       3.36506555       3.27726497
C       -2.51615218       2.50182004       2.49501784
C       -2.49466238       1.10979268       2.66468560
C       -1.67039114       0.30332099       1.87224989
C       -0.88139727       0.88139727       0.88139727
C       -0.90075493       2.25811828       0.68201996
C       -1.71088809       3.06228973       1.48907313
N       -3.78903856       3.22111484       4.62638482
C       -3.05196813       2.47520097       5.61429655
C       -1.64896151       2.42607039       5.53331408
C       -0.89805057       1.72698950       6.48479976
C       -1.54185582       1.08569830       7.53697340
C       -2.92886904       1.12780787       7.63807745
C       -3.68174641       1.81268796       6.67511473
C       -4.93448192       4.01211913       4.84042602
C       -5.75727781       3.98936454       6.08871711
H       -6.44581925       8.22118430       1.25332477
H       -6.65475607       8.44923396       2.99968865
H       -7.76269908       7.36475243       2.08095528
H       -4.03347630       4.84811394       1.78200342
H       -3.12690153       0.63092641       3.40874345
H       -1.66364089      -0.77197322       2.02975271
H       -0.30029594       2.71615028      -0.09947715
H       -1.71330988       4.13607661       1.31408387
H       -1.10777219       2.95252899       4.75038352
H        0.18506843       1.70023707       6.39720173
H       -3.43830312       0.62438248       8.45632190
H       -4.75972184       1.76299931       6.76885110
H       -6.50777569       4.78092785       6.11673796
H       -5.14001326       4.12167748       6.98129800
H       -6.31644771       3.05044045       6.15230483
C       -0.77159496       0.37350096       8.52341810
C       -0.12650149      -0.22296432       9.34956554
Br       0.91656010      -1.18739822      10.68537607
C        2.14390035      -7.04028126       7.45776607
O        2.35903447      -6.07901520       6.42510462
C        3.58274793      -6.17209796       5.81881327
O        4.42417157      -7.00767902       6.11943192
C        3.75921404      -5.14299560       4.78807932
C        2.77002332      -4.22293744       4.36530219
C        3.28090732      -3.42785857       3.35680918
C        2.49586812      -2.51647850       2.50064345
C        2.73983208      -2.40529466       1.12401392
C        1.94632267      -1.58031275       0.31932659
C        0.88139727      -0.88139727       0.88139727
C        0.60853117      -0.99119437       2.24116764
C        1.41591991      -1.80115113       3.04517990
N        4.65476834      -3.71043779       3.27133209
C        5.63769499      -2.87858282       2.62518784
C        5.47852994      -1.48160889       2.64820714
C        6.42178623      -0.64065601       2.04739759
C        7.54289801      -1.18783664       1.43379289
C        7.72157979      -2.56736221       1.40581235
C        6.76777263      -3.41008143       1.99169503
C        4.89113288      -4.88628955       4.00960464
C        6.18428587      -5.63694016       4.01413343
H        1.17275883      -6.83225268       7.91531680
H        2.91320435      -6.95827165       8.23220268
H        2.12071549      -8.05020601       7.03748528
H        1.74461950      -4.20362693       4.71534722
H        3.54425925      -2.96717661       0.65513554
H        2.16170254      -1.50280066      -0.74308281
H       -0.23024036      -0.46183327       2.68537616
H        1.18294116      -1.87521700       4.10531221
H        4.63801696      -1.01536447       3.15730326
H        6.27330007       0.43578889       2.07485918
H        8.59419977      -3.00135393       0.92345381
H        6.92625790      -4.47664361       1.88867073
H        6.21235275      -6.42929710       4.76379164
H        7.03111470      -4.98050191       4.23137212
H        6.33131801      -6.13657197       3.05130301
C        8.52060049      -0.32492617       0.82298736
C        9.33942631       0.39776134       0.31143773
Br      10.66339842       1.56628592      -0.51569476
