178
Properties=species:S:1:pos:R:3 pbc="F F F"
C        1.77687702       1.77687702      -1.77687702
C        1.32143999       2.72148602      -2.70356450
N        2.33451144       3.33504708      -3.32573306
N        3.43583532       2.76704402      -2.78066729
C        4.75761311       3.13407358      -3.27468419
C        5.64068869       3.71676954      -2.19661535
C        6.84269725       3.08332183      -1.85071608
C        7.67959574       3.63585727      -0.87890302
C        7.33516686       4.83687682      -0.24725076
C        6.12909235       5.46710887      -0.57379229
C        5.29112497       4.91122553      -1.54664061
C        8.27620888       5.38875773       0.76345973
O        9.06211129       4.65343963       1.35820589
N        8.24619133       6.75390885       0.96161704
N        9.21001644       7.30429329       1.80937841
C        9.18776829       8.66480945       2.03381952
O        8.40140955       9.42075781       1.46912103
C       10.15973016       9.18178532       3.03653257
C       11.36440382       8.51953437       3.31657177
C       12.24078574       9.03570326       4.27410522
C       11.92318227      10.21458458       4.94847594
C       10.73338748      10.88063036       4.65617136
Br      10.31152687      12.48251914       5.56745362
C        9.85250966      10.37531684       3.70165199
C        3.14363767       1.81311937      -1.84289421
H        0.30544529       2.99158996      -2.96026765
H        4.63651145       3.86013233      -4.08700875
H        5.19034826       2.22275406      -3.70336961
H        7.14354760       2.15666125      -2.33570936
H        8.61007504       3.13172411      -0.62246788
H        5.81107565       6.37713629      -0.07208035
H        4.35616827       5.41516599      -1.79290234
H        7.72561328       7.41185820       0.38506624
H        9.73573303       6.63644096       2.37054956
H       11.65093110       7.61542312       2.78583827
H       13.17496204       8.52199743       4.49040391
H       12.61060080      10.60873983       5.69312820
H        8.92596954      10.89915826       3.47615014
H        3.91501829       1.26553053      -1.32056761
C       -1.77687702      -1.77687702      -1.77687702
C       -3.04454085      -2.26359219      -1.43835747
N       -3.56701799      -3.01102789      -2.41724570
N       -2.61431926      -2.99043117      -3.37879620
C       -2.79722872      -3.77524388      -4.59389827
C       -2.78578496      -2.92557940      -5.84270922
C       -1.81206567      -3.13522509      -6.82944440
C       -1.81723194      -2.37578448      -8.00133961
C       -2.80327860      -1.40441189      -8.21160396
C       -3.76889249      -1.17643988      -7.22466115
C       -3.76122518      -1.93728143      -6.05048450
C       -2.77112821      -0.64219394      -9.48818473
O       -1.72297570      -0.51575082     -10.11861851
N       -3.97095002      -0.13001249      -9.93752063
N       -3.98345019       0.47483992     -11.19632106
C       -5.16889914       1.00765142     -11.65751050
O       -6.22665461       0.91382449     -11.04021621
C       -5.09991579       1.74457210     -12.94963921
C       -4.11985110       1.46676561     -13.91428093
C       -4.08681067       2.19208941     -15.10766252
C       -5.03273466       3.18908611     -15.34564236
C       -6.01666250       3.45181448     -14.39299846
Br      -7.30132275       4.79883555     -14.72410519
C       -6.05978965       2.73322825     -13.19961311
C       -1.51012556      -2.25999115      -3.02953453
H       -3.61237218      -2.11588513      -0.52904560
H       -3.74938368      -4.31352576      -4.52074309
H       -1.99283466      -4.51981481      -4.60382245
H       -1.04228279      -3.89359121      -6.70004420
H       -1.05437373      -2.55172195      -8.75817136
H       -4.52214042      -0.40119388      -7.33695799
H       -4.52174989      -1.75062314      -5.29186356
H       -4.87993225      -0.34154291      -9.53093008
H       -3.06900477       0.66828367     -11.60090333
H       -3.38858630       0.67615160     -13.76808126
H       -3.32693690       1.97583355     -15.85545221
H       -4.99898685       3.74959754     -16.27682311
H       -6.83009185       2.94099392     -12.45987974
H       -0.66083162      -2.15148358      -3.68880123
C       -1.77687702       1.77687702       1.77687702
C       -2.76975048       2.65290084       1.32383918
N       -3.36966550       3.28952212       2.33610396
N       -2.74417173       2.80486252       3.43451238
C       -3.08244270       3.33328367       4.75064450
C       -3.59451909       2.26819284       5.69136165
C       -2.90735643       1.98837906       6.88099967
C       -3.39477059       1.02879139       7.77079406
C       -4.58343448       0.34350968       7.49235027
C       -5.26682679       0.60395538       6.29921134
C       -4.77614379       1.56465527       5.40819205
C       -5.06514827      -0.65113295       8.48749156
O       -4.28177261      -1.19098387       9.26655629
N       -6.42244527      -0.89782020       8.51385807
N       -6.90776783      -1.72884297       9.52600647
C       -8.25921274      -2.00133752       9.56088300
O       -9.06212065      -1.49223350       8.78315918
C       -8.70527498      -2.98565397      10.58536190
C       -7.99163680      -3.19858830      11.77431791
C       -8.44186801      -4.14121448      12.70173025
C       -9.60593796      -4.86741593      12.45076889
C      -10.32329039      -4.64182567      11.27638176
Br     -11.90489752      -5.62319165      10.94488652
C       -9.88394875      -3.70275177      10.34497752
C       -1.76771312       1.89102571       3.14091241
H       -3.08430158       2.86305990       0.30994143
H       -3.84122173       4.11482895       4.62760185
H       -2.17267873       3.80893134       5.13486186
H       -1.98891700       2.51602457       7.13097663
H       -2.84948400       0.82398032       8.69080271
H       -6.16864859       0.05957202       6.03207169
H       -5.32102603       1.75915045       4.48406011
H       -7.11862183      -0.36383295       7.99761636
H       -6.20207810      -2.24693803      10.04648436
H       -7.09787451      -2.62656684      12.00920829
H       -7.88834479      -4.30547164      13.62368242
H       -9.94861886      -5.60000885      13.17760242
H      -10.44766113      -3.52938075       9.43069728
H       -1.17495815       1.41641823       3.90974005
C        1.77687702      -1.77687702       1.77687702
C        1.35549698      -2.91133596       2.47965758
N        2.35836919      -3.47128207       3.16564032
N        3.41886972      -2.67716522       2.88751169
C        4.70162473      -2.93311586       3.53163028
C        5.80653281      -3.20838062       2.53916016
C        6.92754488      -2.36834606       2.48084422
C        7.96785907      -2.63751125       1.58898571
C        7.91057474      -3.75764189       0.75107781
C        6.78773791      -4.59199160       0.79026400
C        5.74570006      -4.31986704       1.68342401
C        9.05793212      -4.00559956      -0.16202480
O        9.79016016      -3.08340213      -0.51621725
N        9.27458945      -5.31233184      -0.54843816
N       10.42154557      -5.58179788      -1.29841212
C       10.64867245      -6.87871919      -1.70863342
O        9.92343987      -7.81633005      -1.38672360
C       11.81955876      -7.08958450      -2.60416035
C       12.92949515      -6.23158165      -2.59371038
C       14.00060970      -6.46205366      -3.46027958
C       13.97187894      -7.55000874      -4.33259677
C       12.87540531      -8.41163779      -4.32919662
Br      12.84515454      -9.88944987      -5.50801202
C       11.80205041      -8.19191219      -3.46778809
C        3.10951782      -1.63473927       2.05539414
H        0.37036590      -3.35632887       2.53060813
H        4.58776323      -3.78961049       4.20627881
H        4.91957682      -2.05147417       4.14542094
H        7.00637908      -1.49888533       3.13065379
H        8.83187190      -1.97558408       1.55681105
H        6.69176116      -5.44487885       0.12365228
H        4.87868038      -4.98059224       1.70496398
H        8.79180797      -6.11946821      -0.15887094
H       10.90564594      -4.76673873      -1.67076024
H       12.99164595      -5.39346146      -1.90459145
H       14.86117749      -5.79669146      -3.45131338
H       14.80944127      -7.72133885      -5.00456769
H       10.94930356      -8.86760465      -3.46793054
H        3.84766036      -0.90963709       1.74381898
C       -0.00445707       0.01189536      -1.78238275
H       -0.66409135       0.67374010      -2.43557963
H        0.65740317      -0.63156657      -2.45157240
C       -0.90989263      -0.90692880      -0.91072765
C        0.90977584       0.90977584      -0.90977584
C       -0.00465871       1.77757030       0.00794375
H       -0.66225468       2.44313916      -0.64384735
H        0.64322798       2.43503045       0.67728295
C       -1.78241447       0.00034974      -0.00472694
H       -2.45427497      -0.65498947       0.64260836
H       -2.43311707       0.67328779      -0.65473579
C       -0.91132561       0.90220522       0.91563759
C       -0.01476271      -0.02253852       1.78660255
H       -0.67934791      -0.69751639       2.42135241
H        0.63392994       0.61504881       2.47327442
C        0.01484550      -1.77751727      -0.01636693
H        0.67870853      -2.42144646      -0.68295456
H       -0.62264859      -2.45592969       0.64226336
C        1.78714474       0.01002794       0.00389507
H        2.44202412       0.67113390       0.66197326
H        2.45385902      -0.65136977      -0.64189061
C        0.91606151      -0.90478549       0.90901405
