157
Properties=species:S:1:pos:R:3 pbc="F F F"
C        0.00000000       0.00000000       0.00000000
C        0.86697299       0.86697299      -0.86697299
C        0.41153597       1.81158200      -1.79366047
N        1.42460742       2.42514306      -2.41582904
N        2.52593130       1.85713999      -1.87076327
C        3.84770908       2.22416956      -2.36478016
C        4.73078467       2.80686552      -1.28671132
C        5.93279323       2.17341781      -0.94081205
C        6.76969172       2.72595324       0.03100100
C        6.42526283       3.92697280       0.66265327
C        5.21918832       4.55720485       0.33611173
C        4.38122095       4.00132150      -0.63673658
C        7.36630486       4.47885371       1.67336376
O        8.15220727       3.74353561       2.26810992
N        7.33628731       5.84400482       1.87152106
N        8.30011242       6.39438927       2.71928243
C        8.27786426       7.75490543       2.94372354
O        7.49150553       8.51085379       2.37902505
C        9.24982614       8.27188129       3.94643660
C       10.45449979       7.60963034       4.22647579
C       11.33088171       8.12579924       5.18400924
C       11.01327825       9.30468056       5.85837997
C        9.82348346       9.97072634       5.56607539
Br       9.40162284      11.57261511       6.47735764
C        8.94260563       9.46541281       4.61155601
C        2.23373364       0.90321534      -0.93299018
H       -0.60445873       2.08168594      -2.05036363
H        3.72660742       2.95022831      -3.17710473
H        4.28044423       1.31285004      -2.79346558
H        6.23364357       1.24675722      -1.42580533
H        7.70017102       2.22182009       0.28743615
H        4.90117163       5.46723227       0.83782367
H        3.44626424       4.50526196      -0.88299832
H        6.81570925       6.50195418       1.29497026
H        8.82582900       5.72653694       3.28045358
H       10.74102707       6.70551910       3.69574229
H       12.26505801       7.61209341       5.40030793
H       11.70069677       9.69883581       6.60303222
H        8.01606552       9.98925424       4.38605416
H        3.00511426       0.35562651      -0.41066359
C       -0.86697299      -0.86697299      -0.86697299
C       -2.02986296      -0.45766446      -1.52925102
N       -2.58450570      -1.45828492      -2.22278889
N       -1.75775114      -2.50492783      -1.99115559
C       -2.08661127      -3.81863941      -2.53140812
C       -1.01705338      -4.35255045      -3.45475767
C       -0.35210445      -5.54790198      -3.14701666
C        0.61335331      -6.06400873      -4.01398854
C        0.91981169      -5.40101024      -5.20838382
C        0.27350348      -4.19833305      -5.51545187
C       -0.69245023      -3.68196973      -4.64485908
C        1.94043993      -6.00973987      -6.10249487
O        2.79613789      -6.77020287      -5.65356798
N        1.84826643      -5.71070879      -7.44632871
N        2.71587786      -6.37487421      -8.31622291
C        2.65130550      -6.07875916      -9.66159249
O        1.82030535      -5.30826084     -10.13537877
C        3.67653717      -6.72481217     -10.52699584
C        4.28428665      -7.94100341     -10.18093759
C        5.25002779      -8.50421890     -11.01848059
C        5.60671127      -7.86211035     -12.20417975
C        4.98886253      -6.66213026     -12.55486667
Br       5.47027785      -5.80001289     -14.16714528
C        4.02305939      -6.09213794     -11.72738387
C       -0.70806465      -2.19249319      -1.16938133
H       -2.50343560       0.51533198      -1.53948721
H       -3.03840779      -3.74524206      -3.07029062
H       -2.24150604      -4.47669358      -1.66856023
H       -0.58036859      -6.09281819      -2.23301935
H        1.11997703      -6.99396170      -3.76057029
H        0.51839352      -3.63625203      -6.41272172
H       -1.18997635      -2.74565750      -4.89889067
H        1.07052780      -5.21544535      -7.87777563
H        3.48166662      -6.87989426      -7.87368472
H        4.00490291      -8.47763420      -9.27807260
H        5.72051525      -9.44752838     -10.74983036
H        6.36021433      -8.30699860     -12.84971609
H        3.54291507      -5.15636349     -12.00581718
H        0.03708388      -2.92212427      -0.88636397
C       -0.86697299       0.86697299       0.86697299
C       -0.63295813       2.21280033       1.17101998
N       -1.58182449       2.71343222       1.97032280
N       -2.41867994       1.66774242       2.16741220
C       -3.55591567       1.81243144       3.06831169
C       -4.87803935       1.56545626       2.38086590
C       -5.71258309       0.52396649       2.81047351
C       -6.95112926       0.31245019       2.20106450
C       -7.38101362       1.14652989       1.16203885
C       -6.54725345       2.17784178       0.71518620
C       -5.30600531       2.38730201       1.32597171
C       -8.71869940       0.88664399       0.56645141
O       -9.22861898      -0.23052234       0.62953632
N       -9.36105701       1.96125551      -0.01354146
N      -10.66971049       1.76623510      -0.46072634
C      -11.32424993       2.82291531      -1.05811908
O      -10.83194286       3.94423727      -1.15284587
C      -12.67015131       2.52804896      -1.62292943
C      -13.47483160       1.49084456      -1.12802182
C      -14.72634554       1.24341518      -1.69708901
C      -15.18151021       2.03185160      -2.75378297
C      -14.38752138       3.07339488      -3.23278185
Br     -15.01273470       4.14416542      -4.66001980
C      -13.13793590       3.32997115      -2.67144462
C       -2.01958275       0.52761443       1.52274199
H        0.18053063       2.85283599       0.85528547
H       -3.54041078       2.82464482       3.48888486
H       -3.38943837       1.10684097       3.89048051
H       -5.41127423      -0.13089415       3.62582605
H       -7.58768682      -0.50036248       2.54723062
H       -6.83150328       2.81618691      -0.11710997
H       -4.66854925       3.19671595       0.96925932
H       -9.04624991       2.92731929       0.04912397
H      -10.97994360       0.79716570      -0.50519694
H      -13.15811468       0.87967030      -0.28698110
H      -15.35002146       0.43935652      -1.31253449
H      -16.15651110       1.83157679      -3.19158754
H      -12.52255465       4.14447944      -3.04776850
H       -2.57991476      -0.39421546       1.58570506
C        0.86697299      -0.86697299       0.86697299
C        2.05386433      -0.46982511       1.49308899
N        2.60162665      -1.46706647       2.19688639
N        1.74624021      -2.49925063       2.00834371
C        2.05769771      -3.80765870       2.57130239
C        0.99800398      -4.29560234       3.53075518
C        0.29920774      -5.48188912       3.26592623
C       -0.65734352      -5.95572619       4.16626130
C       -0.92095684      -5.25893073       5.35160847
C       -0.24064124      -4.06490550       5.61601718
C        0.71632763      -3.59090548       4.71204593
C       -1.93411813      -5.82344936       6.28246358
O       -2.81698702      -6.57385348       5.87076651
N       -1.80408797      -5.49628203       7.61657701
N       -2.66612908      -6.12030079       8.52104754
C       -2.56371602      -5.79537373       9.85738844
O       -1.70472879      -5.03380445      10.29425859
C       -3.58298855      -6.39773952      10.76051986
C       -4.22597498      -7.60704790      10.45658142
C       -5.18455797      -8.12862878      11.32860089
C       -5.49904450      -7.45174559      12.50687775
C       -4.84622395      -6.25876903      12.81558933
Br      -5.27051214      -5.34944358      14.41794888
C       -3.88719246      -5.73018852      11.95346637
C        0.68514027      -2.18126837       1.20353053
H        2.54945730       0.49192064       1.47005417
H        3.02314147      -3.74414913       3.08664986
H        2.17762023      -4.48849371       1.72064592
H        0.49383788      -6.05250357       2.35986469
H       -1.19062964      -6.87919176       3.94599284
H       -0.45188744      -3.47712882       6.50533884
H        1.24067912      -2.66085933       4.93298607
H       -1.00554743      -5.00952790       8.01871270
H       -3.45320391      -6.61733440       8.10778186
H       -3.97980654      -8.17031354       9.56029688
H       -5.68238212      -9.06662596      11.09259965
H       -6.24726993      -7.86432612      13.17944417
H       -3.37966049      -4.79972462      12.19920146
H       -0.08269529      -2.89966125       0.95443839
