165
Properties=species:S:1:pos:R:3 pbc="F F F"
C        0.00000000       0.00000000       0.00000000
C        0.86697299       0.86697299      -0.86697299
C        0.41153597       1.81158200      -1.79366047
N        1.42460742       2.42514306      -2.41582904
N        2.52593130       1.85713999      -1.87076327
C        3.84770908       2.22416956      -2.36478016
C        4.73078467       2.80686552      -1.28671132
C        5.93279323       2.17341781      -0.94081205
C        6.76969172       2.72595324       0.03100100
C        6.42526283       3.92697280       0.66265327
C        5.21918832       4.55720485       0.33611173
C        4.38122095       4.00132150      -0.63673658
C        7.36630486       4.47885371       1.67336376
O        8.15220727       3.74353561       2.26810992
N        7.33628731       5.84400482       1.87152106
N        8.30011242       6.39438927       2.71928243
C        8.27786426       7.75490543       2.94372354
O        7.49150553       8.51085379       2.37902505
C        9.24982614       8.27188129       3.94643660
C       10.45449979       7.60963034       4.22647579
C       11.33088171       8.12579924       5.18400924
C       11.01327825       9.30468056       5.85837997
C        9.82348346       9.97072634       5.56607539
C        8.94260563       9.46541281       4.61155601
C        2.23373364       0.90321534      -0.93299018
H       -0.60445873       2.08168594      -2.05036363
H        3.72660742       2.95022831      -3.17710473
H        4.28044423       1.31285004      -2.79346558
H        6.23364357       1.24675722      -1.42580533
H        7.70017102       2.22182009       0.28743615
H        4.90117163       5.46723227       0.83782367
H        3.44626424       4.50526196      -0.88299832
H        6.81570925       6.50195418       1.29497026
H        8.82582900       5.72653694       3.28045358
H       10.74102707       6.70551910       3.69574229
H       12.26505801       7.61209341       5.40030793
H       11.70069677       9.69883581       6.60303222
H        8.01606552       9.98925424       4.38605416
H        3.00511426       0.35562651      -0.41066359
C        9.50217149      11.19081186       6.26015746
C        9.23307272      12.21263349       6.84145120
Br       8.79796277      13.86483264       7.78135402
C       -0.86697299      -0.86697299      -0.86697299
C       -2.22365957      -1.13750503      -0.65561384
N       -2.72127707      -1.94631534      -1.59798710
N       -1.66267726      -2.18334064      -2.40781666
C       -1.80273187      -3.10525003      -3.52867690
C       -1.51323604      -2.45175991      -4.85936556
C       -0.46388522      -2.92105983      -5.66207804
C       -0.21327111      -2.34302638      -6.90834647
C       -1.01556694      -1.29615428      -7.37786114
C       -2.05435701      -0.80984833      -6.57607610
C       -2.30300249      -1.38924284      -5.32703371
C       -0.71481466      -0.73508756      -8.72189259
O        0.41122693      -0.83264101      -9.20621889
N       -1.76293382      -0.14654559      -9.39929166
N       -1.53082162       0.26817646     -10.71257410
C       -2.56038673       0.87347073     -11.40213015
O       -3.68953044       1.00236033     -10.93616415
C       -2.22515893       1.40286087     -12.75297278
C       -1.18212525       0.86902325     -13.52455234
C       -0.89620912       1.40569789     -14.78216047
C       -1.65196987       2.46872519     -15.27633416
C       -2.69945755       2.98652267     -14.51519953
C       -2.99430951       2.45772564     -13.25987855
C       -0.51760215      -1.55438765      -1.99794937
H       -2.87374458      -0.79093407       0.13708782
H       -2.82386078      -3.50398206      -3.52609763
H       -1.11865451      -3.93832431      -3.32978103
H        0.16679244      -3.74335194      -5.32964662
H        0.60513181      -2.71984748      -7.51983929
H       -2.66852138       0.02939890      -6.89145775
H       -3.11780025      -1.00193250      -4.71479178
H       -2.73653759      -0.18206512      -9.10409046
H       -0.55470133       0.28554451     -11.00275553
H       -0.59599130       0.02230611     -13.17711868
H       -0.08765339       0.99096726     -15.38015737
H       -1.42183408       2.88113838     -16.25580466
H       -3.81331253       2.86427097     -12.67022403
H        0.41425583      -1.64879011      -2.53687008
C       -3.48123037       4.08002291     -15.03161844
C       -4.13596510       4.99582936     -15.46411927
Br      -5.19461579       6.47661094     -16.16343655
C       -0.86697299       0.86697299       0.86697299
C       -1.91753540       1.67733817       0.42190486
N       -2.50115265       2.33267746       1.43174939
N       -1.80694788       1.92629702       2.52058966
C       -2.11126823       2.49890159       3.82648898
C       -2.53279154       1.45648272       4.83508725
C       -1.78239971       1.26138543       6.00323795
C       -2.18633697       0.32301399       6.95529300
C       -3.35354149      -0.42539574       6.76143662
C       -4.09944043      -0.24962322       5.59046423
C       -3.69234489       0.68994487       4.63698928
C       -3.74560115      -1.39370323       7.81989689
O       -2.90523079      -1.86283727       8.58523944
N       -5.08780640      -1.69785003       7.91881470
N       -5.49018274      -2.50224550       8.98728202
C       -6.82500062      -2.83150541       9.09555095
O       -7.68340476      -2.39384721       8.33377671
C       -7.18067169      -3.78661661      10.18121576
C       -6.40693449      -3.91384479      11.34456464
C       -6.77289633      -4.83195376      12.33172914
C       -7.91249340      -5.61887760      12.16596304
C       -8.68987927      -5.47851662      11.01677176
C       -8.33479743      -4.56460935      10.02627435
C       -0.80358351       1.04345394       2.22290172
H       -2.28522405       1.82716663      -0.58479985
H       -2.90951516       3.24021634       3.70420896
H       -1.20824578       3.03075996       4.14775412
H       -0.87893893       1.83939883       6.18786837
H       -1.59270746       0.18429990       7.85754760
H       -4.98630184      -0.84439907       5.38867745
H       -4.28528046       0.81819331       3.73105075
H       -5.82942995      -1.21879077       7.41205398
H       -4.73960455      -2.96483657       9.49714438
H       -5.53078147      -3.29330670      11.51332911
H       -6.17280994      -4.92974712      13.23378067
H       -8.18943167      -6.33182466      12.93889334
H       -8.94513368      -4.45781471       9.13194663
H       -0.15687384       0.63065961       2.98387091
C       -9.86906113      -6.28849575      10.85226052
C      -10.85662594      -6.96685327      10.71448235
Br     -12.45343471      -8.06370001      10.49170671
C        0.86697299      -0.86697299       0.86697299
C        0.54640800      -2.15238534       1.31798510
N        1.52012737      -2.66988751       2.07556463
N        2.46024958      -1.69606683       2.09751815
C        3.66161512      -1.86981813       2.90522555
C        4.92822317      -1.81184692       2.08429142
C        5.88798582      -0.82163588       2.33740139
C        7.07610669      -0.78398391       1.60455336
C        7.32976798      -1.74309750       0.61671689
C        6.37001841      -2.72479993       0.34546310
C        5.17953024      -2.76003372       1.07971508
C        8.62174528      -1.66578446      -0.11573493
O        9.23109556      -0.60145512      -0.20491772
N        9.10907268      -2.84363150      -0.64393311
N       10.38082359      -2.81487348      -1.22047782
C       10.88012908      -3.97763076      -1.76871368
O       10.28484429      -5.05053673      -1.71204676
C       12.18626315      -3.86372969      -2.47472200
C       13.12230285      -2.86919336      -2.15384187
C       14.33029133      -2.79364796      -2.85126759
C       14.61131600      -3.71147392      -3.86321109
C       13.68702365      -4.70994663      -4.16883587
C       12.47940610      -4.79542246      -3.47836613
C        2.10240186      -0.58368147       1.38385583
H       -0.34645044      -2.73659925       1.13744203
H        3.59806117      -2.83520479       3.42067450
H        3.63709898      -1.08233289       3.66732798
H        5.72468865      -0.07211629       3.10940119
H        7.81155797      -0.00882446       1.81417253
H        6.51622008      -3.45778932      -0.44342917
H        4.44247381      -3.53265924       0.85939146
H        8.71845830      -3.76585223      -0.46161736
H       10.76891048      -1.88764278      -1.38464090
H       12.94237132      -2.15926655      -1.35083400
H       15.05588609      -2.02257609      -2.60161869
H       15.55359557      -3.64468641      -4.40178162
H       11.76191142      -5.57693134      -3.71957717
H        2.74464479       0.28211815       1.30887771
C       13.98361809      -5.65933646      -5.21012866
C       14.23201593      -6.45445045      -6.08221137
Br      14.63365424      -7.74008252      -7.49229536
