181
Properties=species:S:1:pos:R:3 pbc="F F F"
C        0.00000000       0.00000000       0.00000000
C        2.21998992       8.15445500      -6.41542232
C        3.35051554       8.89110183      -5.72297579
O        4.28429921       7.93384230      -5.20137499
C        4.04698863       7.49020229      -3.93128044
O        3.16307929       7.91501192      -3.20196154
C        5.04425022       6.42354575      -3.56626868
N        4.53247275       5.09113209      -3.82452719
N        3.63147014       4.60204752      -2.95879391
C        3.44258247       3.32251279      -3.30575859
C        2.53730075       2.48064306      -2.50370822
C        1.90724730       1.34095711      -3.02136981
C        1.09242918       0.53773383      -2.21337502
C        0.88128804       0.88128804      -0.88128804
C        1.46728706       2.02555205      -0.35198548
C        2.28877019       2.81766795      -1.16044432
C        4.26402924       2.99273886      -4.43412232
C        4.38443928       1.67020554      -5.10923877
C        4.95937119       4.16203164      -4.74855492
C        5.97390864       4.38795179      -5.78460887
C        7.08870760       3.53985620      -5.87141623
C        8.01287477       3.67094453      -6.91183094
C        7.84500791       4.67752570      -7.85759010
C        6.76171270       5.54872359      -7.77237223
C        5.82196765       5.39309165      -6.74717890
H        1.54862366       8.85380566      -6.92059117
H        1.64008981       7.56865549      -5.69497428
H        2.61693234       7.44797874      -7.15222468
H        2.97670145       9.56649590      -4.94503755
H        3.89342388       9.50384071      -6.45006741
H        5.26968681       6.50041326      -2.49613968
H        5.98853823       6.57446444      -4.09674296
H        2.01878568       1.05747690      -4.06109917
H        0.62709900      -0.34842408      -2.63709470
H        1.29843044       2.31349785       0.68185666
H        2.74200522       3.71019423      -0.73098989
H        5.17839137       1.64576988      -5.85869300
H        3.45866716       1.42078817      -5.63484206
H        4.60622065       0.88663237      -4.37726450
H        7.23125752       2.74500025      -5.14165790
H        8.84600121       2.97621054      -6.97965426
H        6.62535503       6.33592334      -8.50940234
H        4.95578878       6.04802207      -6.73314158
C        8.78603264       4.80628874      -8.93994519
C        9.57414085       4.91412779      -9.84641757
Br      10.84844518       5.08849441     -11.31210675
C       -3.46524772      -4.23327181      -9.09134771
C       -3.34571146      -5.73139430      -8.88748740
O       -3.79312714      -6.06208943      -7.56429993
C       -2.84215060      -6.04260063      -6.58372014
O       -1.65038616      -5.85275728      -6.77690931
C       -3.47952247      -6.30824825      -5.24629393
N       -3.81608215      -5.07990749      -4.55214239
N       -2.80806332      -4.40170607      -3.98254219
C       -3.37812962      -3.41870373      -3.27402050
C       -2.53029642      -2.51598239      -2.47537322
C       -2.93312056      -1.22366186      -2.11279181
C       -2.11969709      -0.41322313      -1.31061782
C       -0.88128804      -0.88128804      -0.88128804
C       -0.44312693      -2.14669142      -1.25500625
C       -1.26429588      -2.95570080      -2.04688579
C       -4.80514814      -3.48588262      -3.39985966
C       -5.81308895      -2.60571813      -2.74507651
C       -5.05877711      -4.57435912      -4.23682152
C       -6.34549724      -5.13344871      -4.66752334
C       -7.32028743      -5.46560303      -3.71408956
C       -8.58968700      -5.90104338      -4.10491987
C       -8.88241931      -6.03966307      -5.45804133
C       -7.91924878      -5.74394249      -6.41961724
C       -6.66046029      -5.27783083      -6.02394708
H       -3.23833752      -3.95958987     -10.12509310
H       -2.78102978      -3.69562704      -8.42706276
H       -4.47714908      -3.89243952      -8.84754716
H       -2.32595697      -6.08538167      -9.07689626
H       -4.00517240      -6.25424281      -9.58791678
H       -2.77392704      -6.86963043      -4.62268230
H       -4.36849363      -6.93565803      -5.35559396
H       -3.87441649      -0.80935024      -2.45359501
H       -2.46291539       0.57993206      -1.03278629
H        0.52776369      -2.51830836      -0.93952696
H       -0.90779818      -3.94519649      -2.33019468
H       -6.83898819      -2.94871548      -2.89515057
H       -5.76484143      -1.59357500      -3.15588097
H       -5.64023450      -2.56529124      -1.66459179
H       -7.10771255      -5.35815421      -2.65204890
H       -9.34018023      -6.11367053      -3.34801526
H       -8.14332592      -5.84935800      -7.47799679
H       -5.94474177      -5.00013153      -6.79207913
C      -10.19386029      -6.47291241      -5.86549388
C      -11.29219211      -6.83575873      -6.20673538
Br     -13.06810176      -7.42245054      -6.75849404
C       -9.10100992       4.15546736       3.53338996
C       -9.12401510       3.82676723       5.01381083
O       -7.81520252       4.04170935       5.56260463
C       -6.96492951       2.97293197       5.53060988
O       -7.27376195       1.85187714       5.15441365
C       -5.60987912       3.38049741       6.04368812
N       -4.71550826       3.76441226       4.96821151
N       -4.18427871       2.77723326       4.23079961
C       -3.28147567       3.35867140       3.43070678
C       -2.47432909       2.52439020       2.52293274
C       -1.88878909       3.02743210       1.35335303
C       -1.08683633       2.21521190       0.54148981
C       -0.88128804       0.88128804       0.88128804
C       -1.47833387       0.34835734       2.01813338
C       -2.26902591       1.16692899       2.83092756
C       -3.24034914       4.77033279       3.68020850
C       -2.35124743       5.77700635       3.03562982
C       -4.18354546       5.00336179       4.68305049
C       -4.52767116       6.25960118       5.35919697
C       -3.51805815       7.04413582       5.93778606
C       -3.80788660       8.29288839       6.49487526
C       -5.12118466       8.75218391       6.50675514
C       -6.14245760       7.97575613       5.96459480
C       -5.84230432       6.74049966       5.37943421
H      -10.10642346       4.10992616       3.10667087
H       -8.45680371       3.45613957       2.99077631
H       -8.69044690       5.15748126       3.36920761
H       -9.48391907       2.80785167       5.19646416
H       -9.80469984       4.50860852       5.53402365
H       -5.16139086       2.53170766       6.57314123
H       -5.69622448       4.19274848       6.77077267
H       -2.05109150       4.05048886       1.03578138
H       -0.63353983       2.63497932      -0.35274953
H       -1.33857969      -0.69504301       2.28653494
H       -2.72881566       0.73532178       3.71905191
H       -2.42132064       6.76420638       3.49732722
H       -2.61979810       5.91035446       1.98414484
H       -1.30492111       5.46152065       3.10367576
H       -2.48536519       6.70036619       5.93218429
H       -3.00211943       8.89897867       6.90076791
H       -7.16986577       8.33056697       5.97024797
H       -6.64579362       6.17808799       4.91307082
C       -5.42191181      10.04483394       7.06552082
C       -5.67377080      11.12742834       7.53348708
Br      -6.08100548      12.87789192       8.29014894
C        7.19191115      -7.51901191       2.07894417
C        8.26212452      -6.81317820       2.88929044
O        7.63227309      -5.94450606       3.84273735
C        7.37695956      -4.67041549       3.42109630
O        7.72405580      -4.21433602       2.34166093
C        6.62815339      -3.91783883       4.48807244
N        5.19309186      -3.97116112       4.28387905
N        4.68188467      -3.19194856       3.31847835
C        3.35105647      -3.28544307       3.43435431
C        2.48870435      -2.49292155       2.54002614
C        1.16837229      -2.85736585       2.24383608
C        0.36350825      -2.05158051       1.42844928
C        0.88128804      -0.88128804       0.88128804
C        2.19865377      -0.51432286       1.13184796
C        2.99418195      -1.31702063       1.95567988
C        3.01231009      -4.15628521       4.52229513
C        1.64884495      -4.50203418       5.01300447
C        4.22974324      -4.58660347       5.05361103
C        4.48247034      -5.45356263       6.21043633
C        3.88994232      -5.16140416       7.44863354
C        4.03146993      -6.02810074       8.53607957
C        4.79808850      -7.18128242       8.40075280
C        5.41926761      -7.47439719       7.18914372
C        5.24816615      -6.61981538       6.09425667
H        7.63270828      -8.27104146       1.41927074
H        6.63088076      -6.80275227       1.47008655
H        6.46885779      -8.00721507       2.74106290
H        8.96741758      -6.27476336       2.24605396
H        8.83999759      -7.54803075       3.45930366
H        6.93699197      -2.86622210       4.46302569
H        6.88207431      -4.29507617       5.48259515
H        0.73813411      -3.77684009       2.62238754
H       -0.66157310      -2.35105535       1.22628737
H        2.61992699       0.38853145       0.69867609
H        4.02380553      -1.01550395       2.14387987
H        1.66389650      -5.07860020       5.94035755
H        1.11979624      -5.11569594       4.27880521
H        1.07076668      -3.59251952       5.20683132
H        3.28372666      -4.26544651       7.56874249
H        3.52957633      -5.79959712       9.47269256
H        6.01817529      -8.37463005       7.07787537
H        5.69535534      -6.89729904       5.14429804
C        4.93365467      -8.08485436       9.51375754
C        5.04719134      -8.84159587      10.44589901
Br       5.23077053     -10.06518288      11.95309293
