173
Properties=species:S:1:pos:R:3 pbc="F F F"
C        0.00000000       0.00000000       0.00000000
C        2.21998992       8.15445500      -6.41542232
C        3.35051554       8.89110183      -5.72297579
O        4.28429921       7.93384230      -5.20137499
C        4.04698863       7.49020229      -3.93128044
O        3.16307929       7.91501192      -3.20196154
C        5.04425022       6.42354575      -3.56626868
N        4.53247275       5.09113209      -3.82452719
N        3.63147014       4.60204752      -2.95879391
C        3.44258247       3.32251279      -3.30575859
C        2.53730075       2.48064306      -2.50370822
C        1.90724730       1.34095711      -3.02136981
C        1.09242918       0.53773383      -2.21337502
C        0.88128804       0.88128804      -0.88128804
C        1.46728706       2.02555205      -0.35198548
C        2.28877019       2.81766795      -1.16044432
C        4.26402924       2.99273886      -4.43412232
C        4.38443928       1.67020554      -5.10923877
C        4.95937119       4.16203164      -4.74855492
C        5.97390864       4.38795179      -5.78460887
C        7.08870760       3.53985620      -5.87141623
C        8.01287477       3.67094453      -6.91183094
C        7.84500791       4.67752570      -7.85759010
Br       9.07992902       4.84650341      -9.27798119
C        6.76171270       5.54872359      -7.77237223
C        5.82196765       5.39309165      -6.74717890
H        1.54862366       8.85380566      -6.92059117
H        1.64008981       7.56865549      -5.69497428
H        2.61693234       7.44797874      -7.15222468
H        2.97670145       9.56649590      -4.94503755
H        3.89342388       9.50384071      -6.45006741
H        5.26968681       6.50041326      -2.49613968
H        5.98853823       6.57446444      -4.09674296
H        2.01878568       1.05747690      -4.06109917
H        0.62709900      -0.34842408      -2.63709470
H        1.29843044       2.31349785       0.68185666
H        2.74200522       3.71019423      -0.73098989
H        5.17839137       1.64576988      -5.85869300
H        3.45866716       1.42078817      -5.63484206
H        4.60622065       0.88663237      -4.37726450
H        7.23125752       2.74500025      -5.14165790
H        8.84600121       2.97621054      -6.97965426
H        6.62535503       6.33592334      -8.50940234
H        4.95578878       6.04802207      -6.73314158
C       -3.47593457      -4.22092319      -9.09300948
C       -3.35266337      -5.71922291      -8.89270688
O       -3.79644152      -6.05380369      -7.56927129
C       -2.84335598      -6.03437535      -6.59074002
O       -1.65243869      -5.84148827      -6.78612578
C       -3.47720084      -6.30435791      -5.25250591
N       -3.81492767      -5.07828631      -4.55491805
N       -2.80714925      -4.39912131      -3.98604102
C       -3.37781165      -3.41893198      -3.27411023
C       -2.53020705      -2.51610298      -2.47534201
C       -2.93506755      -1.22547009      -2.10903659
C       -2.12166227      -0.41500666      -1.30686911
C       -0.88128804      -0.88128804      -0.88128804
C       -0.44117429      -2.14490176      -1.25874855
C       -1.26230551      -2.95397546      -2.05060149
C       -4.80495261      -3.48897250      -3.39696532
C       -5.81337993      -2.61246551      -2.73803815
C       -5.05803251      -4.57616501      -4.23576023
C       -6.34446680      -5.13713641      -4.66486609
C       -7.31642682      -5.47352478      -3.71002843
C       -8.58572427      -5.91089692      -4.09902906
C       -8.88112658      -6.04719063      -5.45180650
Br     -10.60207057      -6.61835895      -5.98398409
C       -7.92072413      -5.74724351      -6.41484088
C       -6.66209437      -5.27923415      -6.02090968
H       -3.25189923      -3.94447532     -10.12664594
H       -2.79143885      -3.68323398      -8.42904675
H       -4.48804277      -3.88285272      -8.84624027
H       -2.33255359      -6.07055048      -9.08513084
H       -4.01251416      -6.24198218      -9.59283566
H       -2.76900566      -6.86555408      -4.63168002
H       -4.36503138      -6.93347973      -5.36123451
H       -3.87801747      -0.81248262      -2.44686165
H       -2.46644715       0.57677936      -1.02610183
H        0.53122081      -2.51507410      -0.94621833
H       -0.90426137      -3.94206078      -2.33686720
H       -6.83885163      -2.95738791      -2.88661471
H       -5.76825688      -1.59931976      -3.14672075
H       -5.63823898      -2.57402951      -1.65784903
H       -7.10175325      -5.36793937      -2.64822304
H       -9.33408286      -6.12683423      -3.34094893
H       -8.14689631      -5.85082895      -7.47295545
H       -5.94867779      -4.99827684      -6.78999780
C       -9.10592488       4.10822491       3.57571745
C       -9.11356845       3.79201059       5.05901413
O       -7.80203621       4.02272405       5.59475625
C       -6.94295843       2.96095846       5.56455447
O       -7.24537298       1.83415055       5.20052921
C       -5.58714136       3.38436789       6.06255541
N       -4.70523458       3.76664171       4.97625574
N       -4.17185467       2.77773298       4.24272393
C       -3.28087061       3.35994167       3.43004157
C       -2.47434508       2.52480211       2.52250485
C       -1.90306298       3.02277180       1.34373943
C       -1.10110646       2.21046762       0.53196396
C       -0.88128804       0.88128804       0.88128804
C       -1.46409708       0.35305431       2.02767319
C       -2.25484012       1.17181291       2.84022943
C       -3.24970115       4.77398251       3.66720677
C       -2.37473470       5.78260924       3.00653966
C       -4.18632020       5.00757294       4.67606461
C       -4.53542952       6.26658485       5.34445492
C       -3.52769238       7.06456794       5.90771970
C       -3.82345364       8.31553598       6.45666062
C       -5.14048260       8.76376680       6.47587431
Br      -5.54338998      10.46293193       7.19809170
C       -6.15963932       7.97410259       5.94906660
C       -5.85390734       6.73647721       5.37185365
H      -10.11449354       4.05051573       3.15801122
H       -8.46038619       3.40976969       3.03356370
H       -8.70535023       5.11224288       3.39954266
H       -9.46318663       2.77167955       5.25336872
H       -9.79562341       4.47247982       5.57922877
H       -5.12694056       2.54396816       6.59533104
H       -5.67426129       4.20204441       6.78343992
H       -2.07679245       4.04166345       1.01890584
H       -0.65901222       2.62640187      -0.36964448
H       -1.31315710      -0.68679097       2.30370549
H       -2.70337774       0.74393239       3.73587921
H       -2.44932913       6.77309103       3.46043409
H       -2.65331954       5.90468137       1.95629648
H       -1.32521011       5.47659801       3.06830940
H       -2.49218266       6.72952960       5.89620341
H       -3.01948591       8.93188314       6.85049697
H       -7.18995860       8.32022659       5.96049552
H       -6.65648342       6.16330781       4.91716120
C        7.40669327      -7.30884252       2.07433145
C        8.41432036      -6.59522646       2.95504634
O        7.71231984      -5.79185852       3.91533814
C        7.42178541      -4.51259605       3.53408990
O        7.79213297      -3.99932545       2.48859433
C        6.60131139      -3.83447564       4.59827762
N        5.17879930      -3.93585825       4.33347449
N        4.67449151      -3.13845646       3.37936361
C        3.34508558      -3.28896455       3.43680372
C        2.48685599      -2.49501900       2.53977704
C        1.19526755      -2.89872985       2.17557682
C        0.39078016      -2.09251455       1.36024333
C        0.88128804      -0.88128804       0.88128804
C        2.17160870      -0.47330632       1.19990958
C        2.96631612      -1.27715298       2.02341335
C        2.99974537      -4.21634685       4.47479820
C        1.63333562      -4.63535557       4.89519240
C        4.21192769      -4.61980625       5.03822380
C        4.45423211      -5.52284149       6.16939570
C        3.80191799      -5.30526004       7.39280200
C        3.93592447      -6.20956796       8.45015782
C        4.75391522      -7.32514310       8.30106539
Br       4.92262650      -8.56187738       9.71990974
C        5.43382615      -7.54364107       7.10534129
C        5.27108344      -6.65228798       6.03886678
H        7.90359267      -8.01524751       1.40418031
H        6.84118184      -6.59087296       1.47166478
H        6.67874950      -7.85188095       2.68650532
H        9.12173012      -6.00353123       2.36297355
H        8.99893940      -7.32950284       3.51888976
H        6.86751882      -2.77136950       4.62735144
H        6.83112044      -4.24187946       5.58674573
H        0.78851629      -3.84918276       2.49966269
H       -0.61240221      -2.42358810       1.10458373
H        2.57224213       0.46244001       0.82026950
H        3.97449954      -0.94328954       2.26540026
H        1.63547990      -5.24841930       5.79895506
H        1.15921968      -5.23875756       4.11632015
H        1.01126699      -3.75802642       5.10082412
H        3.15521666      -4.43955157       7.52314743
H        3.38858580      -6.03960336       9.37367685
H        6.07305844      -8.41426813       6.98335414
H        5.76634006      -6.87276069       5.09785168
