173
Properties=species:S:1:pos:R:3 pbc="F F F"
C        0.00000000       0.00000000       0.00000000
C        3.17810597       8.00917631      -7.74095647
C        3.16581088       8.46893347      -6.29125300
O        2.76283497       7.43960199      -5.37120956
C        1.47493510       7.03354889      -5.41732037
O        0.63378155       7.48845047      -6.18208701
C        1.11394228       5.96725632      -4.41075768
C        2.14390577       5.63018295      -3.34376728
N        3.14503765       4.66117678      -3.75827308
N        4.07598214       5.10298119      -4.61682721
C        4.89842923       4.07478512      -4.83376068
C        4.46470606       2.95205668      -4.09318816
C        3.32618832       3.34083361      -3.39573576
C        2.48056441       2.52156007      -2.51735310
C        2.17807423       1.20067189      -2.88980193
C        1.38823902       0.38118507      -2.07592805
C        0.88133985       0.88133985      -0.88133985
C        1.18480020       2.17916255      -0.48098261
C        2.00162698       2.98393641      -1.28463285
C        6.04397109       4.22450415      -5.73144262
C        7.21200358       3.47111293      -5.57418072
C        8.30905337       3.68572642      -6.41928381
C        8.23754237       4.64617918      -7.42931527
Br       9.72722179       4.94973217      -8.55198330
C        7.07940934       5.39317337      -7.60935662
C        5.99365675       5.18020408      -6.75945124
H        3.67540290       8.75072384      -8.37337050
H        2.16455915       7.86790042      -8.12631777
H        3.68976731       7.05210981      -7.85421586
H        2.53676036       9.35601875      -6.15919716
H        4.18472479       8.74910857      -6.00270849
H        0.80975265       5.06867854      -4.95733991
H        0.23283321       6.36410474      -3.88830688
H        1.61104145       5.22797773      -2.48369771
H        2.68153346       6.51853893      -2.99102792
H        4.91858663       1.97133486      -4.07107766
H        2.55779156       0.79126668      -3.82412329
H        1.17753197      -0.63929015      -2.38527240
H        0.80369032       2.57136009       0.45853574
H        2.27010204       3.96893872      -0.91302290
H        7.29553045       2.73551991      -4.77889234
H        9.21836481       3.10905895      -6.27258574
H        7.00869733       6.14598069      -8.38981456
H        5.09488452       5.77468120      -6.88917107
C       -9.38611784      -4.24932011      -5.29280080
C       -8.57543250      -3.24866354      -6.10190131
O       -7.42316826      -2.75005009      -5.40042818
C       -7.64231682      -1.94853605      -4.33495149
O       -8.75147245      -1.61637012      -3.93647646
C       -6.39034864      -1.44309385      -3.65851378
C       -5.06247357      -1.70224699      -4.35313543
N       -4.48249788      -3.00603148      -4.07595814
N       -5.07554128      -4.05463482      -4.66561444
C       -4.37214422      -5.12976460      -4.30506620
C       -3.30960275      -4.74286487      -3.45748328
C       -3.38657372      -3.36177258      -3.31441140
C       -2.53180403      -2.48853387      -2.49913968
C       -2.14177300      -2.91021921      -1.21655584
C       -1.31679426      -2.11611146      -0.41244641
C       -0.88133985      -0.88133985      -0.88133985
C       -1.23684622      -0.45170983      -2.15638931
C       -2.03684728      -1.26482353      -2.96852542
C       -4.75480078      -6.45652401      -4.78859306
C       -3.81892154      -7.48258697      -4.95578873
C       -4.21584618      -8.72146869      -5.47674874
C       -5.55015890      -8.94080816      -5.82206975
Br      -6.07760959     -10.60467245      -6.54665521
C       -6.49608822      -7.93743996      -5.64841115
C       -6.09284732      -6.70366246      -5.13680229
H      -10.12597984      -4.74530576      -5.92821163
H       -9.92247791      -3.76295125      -4.47334819
H       -8.74811111      -5.00919921      -4.83878266
H       -9.19711976      -2.41314230      -6.44171420
H       -8.19016634      -3.74988655      -6.99648896
H       -6.37589039      -1.82671946      -2.63316124
H       -6.51853487      -0.35297466      -3.61373531
H       -4.36133430      -0.93682205      -4.02456055
H       -5.13941105      -1.60861840      -5.44307087
H       -2.57573676      -5.38879096      -2.99647143
H       -2.47724500      -3.86942593      -0.82651060
H       -1.02408152      -2.47157912       0.57214642
H       -0.88796437       0.50593487      -2.53448517
H       -2.24366125      -0.92789426      -3.98050815
H       -2.77140141      -7.32344505      -4.71509624
H       -3.47487408      -9.50295667      -5.62217875
H       -7.53835206      -8.09191537      -5.91422515
H       -6.82804918      -5.91436933      -5.01631827
C       -7.25983083       3.24686416       8.42154376
C       -5.78041328       3.41250323       8.73308084
O       -4.92206411       2.99383839       7.65774403
C       -4.87574913       1.67292978       7.37712545
O       -5.50793481       0.81550905       7.98087516
C       -3.93923820       1.30002849       6.25268958
C       -3.01579216       2.38379618       5.71826766
N       -3.61480094       3.24105066       4.70863590
N       -4.51849009       4.12961368       5.14768677
C       -4.90923616       4.82186194       4.07587692
C       -4.23412286       4.34706665       2.92876138
C       -3.39376550       3.32133141       3.34766078
C       -2.51328808       2.48132343       2.52486606
C       -2.97212519       2.01552980       1.28089306
C       -2.16116787       1.22491194       0.45927232
C       -0.88133985       0.88133985       0.88133985
C       -0.39704479       1.34832318       2.09957740
C       -1.20191184       2.16514140       2.90314299
C       -5.89972979       5.89025628       4.20993178
C       -5.92932664       6.98644362       3.34152698
C       -6.85697044       8.01806741       3.53902576
C       -7.76324714       7.95152747       4.59826220
Br      -8.99712269       9.35584266       4.87597190
C       -7.75779304       6.86243734       5.46170894
C       -6.82637243       5.84260818       5.26433147
H       -7.86879780       3.75632637       9.17437306
H       -7.55304085       2.19344993       8.41228656
H       -7.51027873       3.64772679       7.43808745
H       -5.50595326       2.89003340       9.65598960
H       -5.57104003       4.47633696       8.88916487
H       -4.53204488       0.85899291       5.44473331
H       -3.29730779       0.51423536       6.67370168
H       -2.14684909       1.89375864       5.28210917
H       -2.63934433       3.03747932       6.51427666
H       -4.34681102       4.70061847       1.91356966
H       -3.97309553       2.26583436       0.93425164
H       -2.53935556       0.88586684      -0.50170819
H        0.60764978       1.09538886       2.42877558
H       -0.77103803       2.56353396       3.81749167
H       -5.21658030       7.06787413       2.52548827
H       -6.85506934       8.87463962       2.87030054
H       -8.45556288       6.79677545       6.29215425
H       -6.81088704       4.99980468       5.94804506
C        4.12231196      -9.34827569       5.45765111
C        4.77473948      -9.03012767       4.12113020
O        4.22669573      -7.86313565       3.48381515
C        2.95881857      -7.94333106       3.02365474
O        2.25490737      -8.94172497       3.10768669
C        2.45372547      -6.69146689       2.34676391
C        3.46145707      -5.58663119       2.06976773
N        3.69023192      -4.68635578       3.18789980
N        4.40715003      -5.18057338       4.20806712
C        4.52064290      -4.19065607       5.09567604
C        3.84771953      -3.04289370       4.61933767
C        3.31211459      -3.37177809       3.37886502
C        2.48916373      -2.53199170       2.49832215
C        1.49008745      -1.71864396       3.05981664
C        0.69325122      -0.89285226       2.25924865
C        0.88133985      -0.88133985       0.88133985
C        1.87856644      -1.66197894       0.30439999
C        2.69358250      -2.46254681       1.11406692
C        5.26100044      -4.39859387       6.34032354
C        5.90471977      -3.34879513       7.00378233
C        6.65254143      -3.59940815       8.16211402
C        6.75023524      -4.89747649       8.66532508
Br       7.77911974      -5.23573460      10.21408293
C        6.10463641      -5.95000339       8.02729953
C        5.36834782      -5.69498958       6.86997467
H        4.69639809     -10.11140778       5.99169137
H        3.10443985      -9.72627407       5.32806343
H        4.04635290      -8.46123052       6.08850956
H        4.72621597      -9.88630135       3.43945894
H        5.83461524      -8.81131241       4.29061421
H        1.60410400      -6.30956199       2.92210510
H        2.08026295      -7.03318137       1.37180051
H        3.09110382      -5.00320375       1.22840933
H        4.43897614      -5.98271770       1.76940647
H        3.75403190      -2.08865939       5.11830786
H        1.32043292      -1.71777112       4.13497749
H       -0.06628695      -0.26792292       2.72187825
H        2.04035340      -1.64663237      -0.77047110
H        3.50238319      -3.01073166       0.63894882
H        5.86012411      -2.33540412       6.61441447
H        7.16580468      -2.77851835       8.65568647
H        6.17257335      -6.96648304       8.40543619
H        4.87749670      -6.51911240       6.36212767
