194
Properties=species:S:1:pos:R:3 pbc="F F F"
C        4.08800999       8.91908034      -8.65086050
C        4.07571490       9.37883749      -7.20115703
O        3.67273900       8.34950602      -6.28111359
C        2.38483913       7.94345292      -6.32722440
O        1.54368557       8.39835449      -7.09199104
C        2.02384630       6.87716034      -5.32066171
C        3.05380979       6.54008697      -4.25367130
N        4.05494167       5.57108080      -4.66817710
N        4.98588617       6.01288521      -5.52673123
C        5.80833325       4.98468914      -5.74366470
C        5.37461008       3.86196070      -5.00309218
C        4.23609234       4.25073764      -4.30563979
C        3.39046844       3.43146409      -3.42725712
C        3.08797826       2.11057591      -3.79970596
C        2.29814304       1.29108909      -2.98583207
C        1.79124388       1.79124388      -1.79124388
C        2.09470423       3.08906657      -1.39088664
C        2.91153100       3.89384043      -2.19453687
C        6.95387511       5.13440817      -6.64134664
C        8.12190761       4.38101696      -6.48408475
C        9.21895739       4.59563045      -7.32918784
C        9.14744639       5.55608320      -8.33921929
Br      10.63712582       5.85963619      -9.46188732
C        7.98931336       6.30307739      -8.51926065
C        6.90356077       6.09010811      -7.66935526
H        4.58530692       9.66062786      -9.28327452
H        3.07446317       8.77780445      -9.03622180
H        4.59967133       7.96201384      -8.76411988
H        3.44666438      10.26592277      -7.06910118
H        5.09462881       9.65901260      -6.91261252
H        1.71965668       5.97858256      -5.86724393
H        1.14273724       7.27400876      -4.79821091
H        2.52094548       6.13788176      -3.39360174
H        3.59143748       7.42844296      -3.90093195
H        5.82849066       2.88123888      -4.98098168
H        3.46769559       1.70117070      -4.73402732
H        2.08743600       0.27061387      -3.29517642
H        1.71359435       3.48126411      -0.45136828
H        3.18000607       4.87884275      -1.82292692
H        8.20543447       3.64542393      -5.68879636
H       10.12826883       4.01896297      -7.18248977
H        7.91860136       7.05588471      -9.29971858
H        6.00478854       6.68458523      -7.79907509
C       -4.13535074      -8.27276935      -9.24983073
C       -3.86287467      -8.90102464      -7.89181011
O       -3.46423833      -7.94632287      -6.89279740
C       -2.25544359      -7.36065345      -7.03941940
O       -1.48067886      -7.59519983      -7.95815242
C       -1.89043201      -6.38618695      -5.94504940
C       -2.79369289      -6.33111830      -4.72275688
N       -3.95467618      -5.46895645      -4.87056694
N       -4.93560866      -5.92827704      -5.66161691
C       -5.90055283      -5.00714475      -5.62898951
C       -5.50843455      -3.93429104      -4.79693738
C       -4.24407005      -4.24192508      -4.30647464
C       -3.39059865      -3.42621711      -3.43237388
C       -3.30828109      -2.04023761      -3.64974143
C       -2.51871307      -1.22422972      -2.83212141
C       -1.79124388      -1.79124388      -1.79124388
C       -1.87342747      -3.15813329      -1.54309667
C       -2.68988405      -3.96474014      -2.34528411
C       -7.13373440      -5.20488430      -6.39101123
C       -8.35176100      -4.64833997      -5.98690833
C       -9.52192869      -4.90948040      -6.71236659
C       -9.47555771      -5.71872885      -7.84846233
Br     -11.05953116      -6.08830911      -8.81080906
C       -8.27124620      -6.26757875      -8.27282645
C       -7.11129931      -6.01023281      -7.54149203
H       -4.62160252      -8.99339647      -9.91421032
H       -3.21121225      -7.94406299      -9.73321417
H       -4.77165376      -7.39056679      -9.16358451
H       -3.11721429      -9.70028388      -7.96419016
H       -4.78881394      -9.35503045      -7.52240954
H       -1.77898357      -5.39342435      -6.39307524
H       -0.90255864      -6.71641881      -5.59597945
H       -2.19874801      -5.96686073      -3.88682023
H       -3.16298334      -7.32281938      -4.43500966
H       -6.07184927      -3.03737623      -4.58148572
H       -3.86304843      -1.57650632      -4.46333885
H       -2.48073707      -0.15404207      -3.01844715
H       -1.31867798      -3.60540332      -0.72214544
H       -2.78021912      -5.01586127      -2.08569535
H       -8.41247265      -4.03526739      -5.09191473
H      -10.46553667      -4.48886989      -6.37531501
H       -8.21892101      -6.90118870      -9.15409494
H       -6.17346696      -6.45190975      -7.86307215
C      -10.32989574       6.00317728       5.32487781
C       -9.87049063       4.74312895       6.04208984
O       -8.70006677       4.14862160       5.45467023
C       -8.83280542       3.59212593       4.23058509
O       -9.88049899       3.55568137       3.59785075
C       -7.57209083       2.96720724       3.68237028
C       -6.38352169       2.84127405       4.62277233
N       -5.55430974       4.03217513       4.70771471
N       -6.07193802       5.06604974       5.38751486
C       -5.14448578       6.02525553       5.36694578
C       -4.01357003       5.58041818       4.64567476
C       -4.28628587       4.28434870       4.22183520
C       -3.44235227       3.40524903       3.40158834
C       -2.74274823       3.94614564       2.30936626
C       -1.91682865       3.14757802       1.51065754
C       -1.79124388       1.79124388       1.79124388
C       -2.45729613       1.23708240       2.88027891
C       -3.25754393       2.04776510       3.69459927
C       -5.39217372       7.30378917       6.03366704
C       -4.35238550       8.08304070       6.55158310
C       -4.63567904       9.27332294       7.23477370
C       -5.95748051       9.69233908       7.39292930
Br      -6.33743360      11.28573085       8.33548488
C       -7.00198074       8.93806742       6.87160324
C       -6.71359341       7.74993562       6.19949511
H      -11.08912941       6.52448297       5.91559692
H      -10.76611648       5.77357615       4.34879679
H       -9.49889248       6.68596816       5.14094441
H      -10.67556305       4.00274681       6.10337848
H       -9.59270586       5.00461811       7.06892995
H       -7.29253882       3.50333868       2.76960568
H       -7.86598763       1.94634243       3.40262684
H       -5.76655824       2.01687765       4.26899308
H       -6.68863882       2.58716103       5.64501254
H       -3.10723832       6.13528255       4.44819035
H       -2.83250068       5.00346430       2.06692862
H       -1.38103300       3.59481846       0.67737483
H       -2.35196595       0.18058380       3.11367698
H       -3.71269407       1.59697131       4.57211035
H       -3.31855484       7.76171306       6.45938687
H       -3.82008571       9.85829501       7.65134086
H       -8.03646177       9.24972455       6.98801833
H       -7.52982069       7.15218692       5.80644124
C       10.27173431      -6.31267183       5.07354468
C        9.93264171      -4.98653698       5.73653073
O        8.76477341      -4.35571451       5.18287068
C        8.85336870      -3.88134523       3.92080251
O        9.85991393      -3.94746036       3.22665681
C        7.59976892      -3.21229491       3.40960452
C        6.48156914      -2.95756759       4.40843134
N        5.59083238      -4.08742640       4.61594079
N        6.08828445      -5.10989260       5.32732556
C        5.10668317      -6.00897249       5.42103142
C        3.96105421      -5.53758566       4.74102310
C        4.28238203      -4.28813674       4.22195100
C        3.44198791      -3.40777659       3.39942515
C        2.64513757      -3.96715279       2.38596976
C        1.81930959      -3.16688849       1.58886613
C        1.79124388      -1.79124388       1.79124388
C        2.55524508      -1.21674702       2.80266534
C        3.35575793      -2.02656587       3.61758450
C        5.32001770      -7.25914049       6.15047173
C        4.27061566      -7.94033452       6.77605913
C        4.52562889      -9.10382832       7.51431848
C        5.82785636      -9.59442204       7.62047048
Br       6.17169369     -11.15035567       8.63659998
C        6.88027515      -8.93860996       6.99276629
C        6.62075149      -7.77629106       6.26598160
H       11.03442157      -6.84473652       5.65005122
H       10.65898005      -6.16836572       4.06114364
H        9.39226044      -6.95194700       4.98159761
H       10.78201347      -4.29546038       5.70421448
H        9.70454379      -5.16951234       6.79219779
H        7.23289481      -3.78257938       2.55000898
H        7.93503748      -2.22990764       3.05001179
H        5.89317993      -2.11849309       4.04075595
H        6.86419428      -2.66343777       5.39318033
H        3.01318835      -6.04550325       4.63201961
H        2.65742188      -5.04040786       2.20506387
H        1.20730146      -3.62797273       0.81795211
H        2.52682863      -0.14386829       2.97552982
H        3.89038193      -1.55431974       4.43707407
H        3.25368279      -7.56115176       6.72482021
H        3.70467858      -9.61137649       8.01366650
H        7.89993297      -9.30677747       7.06749422
H        7.44454862      -7.25467328       5.78922695
C       -0.00445707       0.01189536      -1.78238275
H       -0.66409135       0.67374010      -2.43557963
H        0.65740317      -0.63156657      -2.45157240
C       -0.90989263      -0.90692880      -0.91072765
C        0.90977584       0.90977584      -0.90977584
C       -0.00465871       1.77757030       0.00794375
H       -0.66225468       2.44313916      -0.64384735
H        0.64322798       2.43503045       0.67728295
C       -1.78241447       0.00034974      -0.00472694
H       -2.45427497      -0.65498947       0.64260836
H       -2.43311707       0.67328779      -0.65473579
C       -0.91132561       0.90220522       0.91563759
C       -0.01476271      -0.02253852       1.78660255
H       -0.67934791      -0.69751639       2.42135241
H        0.63392994       0.61504881       2.47327442
C        0.01484550      -1.77751727      -0.01636693
H        0.67870853      -2.42144646      -0.68295456
H       -0.62264859      -2.45592969       0.64226336
C        1.78714474       0.01002794       0.00389507
H        2.44202412       0.67113390       0.66197326
H        2.45385902      -0.65136977      -0.64189061
C        0.91606151      -0.90478549       0.90901405
