181
Properties=species:S:1:pos:R:3 pbc="F F F"
C        0.00000000       0.00000000       0.00000000
C        3.17810597       8.00917631      -7.74095647
C        3.16581088       8.46893347      -6.29125300
O        2.76283497       7.43960199      -5.37120956
C        1.47493510       7.03354889      -5.41732037
O        0.63378155       7.48845047      -6.18208701
C        1.11394228       5.96725632      -4.41075768
C        2.14390577       5.63018295      -3.34376728
N        3.14503765       4.66117678      -3.75827308
N        4.07598214       5.10298119      -4.61682721
C        4.89842923       4.07478512      -4.83376068
C        4.46470606       2.95205668      -4.09318816
C        3.32618832       3.34083361      -3.39573576
C        2.48056441       2.52156007      -2.51735310
C        2.17807423       1.20067189      -2.88980193
C        1.38823902       0.38118507      -2.07592805
C        0.88133985       0.88133985      -0.88133985
C        1.18480020       2.17916255      -0.48098261
C        2.00162698       2.98393641      -1.28463285
C        6.04397109       4.22450415      -5.73144262
C        7.21200358       3.47111293      -5.57418072
C        8.30905337       3.68572642      -6.41928381
C        8.23754237       4.64617918      -7.42931527
C        7.07940934       5.39317337      -7.60935662
C        5.99365675       5.18020408      -6.75945124
H        3.67540290       8.75072384      -8.37337050
H        2.16455915       7.86790042      -8.12631777
H        3.68976731       7.05210981      -7.85421586
H        2.53676036       9.35601875      -6.15919716
H        4.18472479       8.74910857      -6.00270849
H        0.80975265       5.06867854      -4.95733991
H        0.23283321       6.36410474      -3.88830688
H        1.61104145       5.22797773      -2.48369771
H        2.68153346       6.51853893      -2.99102792
H        4.91858663       1.97133486      -4.07107766
H        2.55779156       0.79126668      -3.82412329
H        1.17753197      -0.63929015      -2.38527240
H        0.80369032       2.57136009       0.45853574
H        2.27010204       3.96893872      -0.91302290
H        7.29553045       2.73551991      -4.77889234
H        9.21836481       3.10905895      -6.27258574
H        7.00869733       6.14598069      -8.38981456
H        5.09488452       5.77468120      -6.88917107
C        9.37260411       4.87747148      -8.28473255
C       10.32321831       5.07117879      -9.00114452
Br      11.86028108       5.38438711     -10.15952209
C       -3.19072359      -7.59103372      -8.14648144
C       -3.00792852      -8.16721313      -6.75085570
O       -2.61011152      -7.18587153      -5.77766348
C       -1.37021206      -6.66164082      -5.89395148
O       -0.56726164      -6.97247740      -6.76457999
C       -1.00925309      -5.65467585      -4.82802734
C       -1.96216437      -5.50322087      -3.65247076
N       -3.07433804      -4.59832672      -3.89182274
N       -4.03953179      -5.04993076      -4.70632799
C       -4.96131871      -4.08650703      -4.75914928
C       -4.55715633      -2.99469292      -3.95810164
C       -3.33130721      -3.33491296      -3.39653751
C       -2.48049540      -2.51817304      -2.52080913
C       -2.32460402      -1.14873316      -2.79521088
C       -1.53505308      -0.33148149      -1.97881756
C       -0.88133985      -0.88133985      -0.88133985
C       -1.03757532      -2.23031051      -0.57705954
C       -1.85420713      -3.03627730      -1.37971180
C       -6.16742442      -4.26456859      -5.56792484
C       -7.37507153      -3.63660537      -5.24562034
C       -8.52284302      -3.87903251      -6.01218808
C       -8.46377297      -4.74124043      -7.10802342
C       -7.26856085      -5.36185602      -7.45152246
C       -6.13142462      -5.12249172      -6.67939573
H       -3.67994321      -8.31942243      -8.80013159
H       -2.23189487      -7.32623380      -8.60064866
H       -3.78871555      -6.67851161      -8.12886582
H       -2.29757873      -9.00115622      -6.75324131
H       -3.96931165      -8.56225005      -6.40498016
H       -0.83228523      -4.68960760      -5.31387827
H       -0.05412138      -6.01176315      -4.41936030
H       -1.38855038      -5.12733942      -2.80682710
H       -2.38930887      -6.46324410      -3.33854734
H       -5.08744222      -2.06473344      -3.80882349
H       -2.82079893      -0.69906642      -3.65331618
H       -1.43939700       0.72621115      -2.21032837
H       -0.54096173      -2.66320867       0.28765574
H       -2.00447243      -4.06923723      -1.07835400
H       -7.44686840      -2.98069295      -4.38238135
H       -9.45995889      -3.40196186      -5.73808875
H       -7.20669046      -6.03725778      -8.30054435
H       -5.20173146      -5.61961433      -6.93739099
C       -9.64881231      -5.00282327      -7.88317256
C      -10.64128275      -5.22189891      -8.53235997
Br     -12.24602351      -5.57612568      -9.58204110
C       -6.43903323       8.95738672       3.53181880
C       -7.20993746       7.79984167       2.91621822
O       -6.36579625       6.71522945       2.49262083
C       -5.54951540       6.93726925       1.43901971
O       -5.48899757       7.99323800       0.82208346
C       -4.70737711       5.75122390       1.03335527
C       -5.01338518       4.41417495       1.69029586
N       -4.37038457       4.21536671       2.97873622
N       -4.87505774       4.91490798       4.00582482
C       -4.16653044       4.56073900       5.07970558
C       -3.18289987       3.61503342       4.71201761
C       -3.32232968       3.39429637       3.34613164
C       -2.50871242       2.52785320       2.48291195
C       -1.11504158       2.49325673       2.66024975
C       -0.30421329       1.67155175       1.86958710
C       -0.88133985       0.88133985       0.88133985
C       -2.26128088       0.88254436       0.70112012
C       -3.07041431       1.68332473       1.51645719
C       -4.46902927       5.14393890       6.38694968
C       -4.21937862       4.45783582       7.58008280
C       -4.57734609       5.02723755       8.80947996
C       -5.17603708       6.28727580       8.84972394
C       -5.41761303       6.98945341       7.67487289
C       -5.06614953       6.41346135       6.45370119
H       -7.12477331       9.66009608       4.01462785
H       -5.87240160       9.50946169       2.77691405
H       -5.71540008       8.60984172       4.27085117
H       -7.83490559       8.13557492       2.08149574
H       -7.88062134       7.38139621       3.67452430
H       -3.65362366       6.01819482       1.16395262
H       -4.89815120       5.62861983      -0.04152620
H       -4.67987292       3.62847008       1.01437390
H       -6.08910619       4.26216163       1.83983250
H       -2.45161114       3.15081684       5.35857116
H       -0.64144026       3.10926291       3.42247836
H        0.77003462       1.65876772       2.03478112
H       -2.72006835       0.25633460      -0.05988829
H       -4.14737983       1.61330760       1.39137623
H       -3.77595166       3.46597679       7.56801425
H       -4.39792078       4.47440582       9.72768290
H       -5.88466911       7.97051605       7.68930743
H       -5.26950357       6.95430956       5.53492365
C       -5.55947907       6.86231485      10.11301422
C       -5.88061173       7.34391006      11.17101983
Br      -6.39985609       8.12260879      12.88172541
C        9.13658247      -3.72231542       6.06934086
C        8.07900889      -2.97759066       6.86939780
O        6.96790097      -2.53514050       6.07060505
C        7.20070784      -1.55562428       5.16947224
O        8.28803150      -1.01974676       4.99654077
C        5.98760049      -1.12376260       4.38059319
C        4.63512912      -1.66358402       4.81914285
N        4.30745350      -2.97429213       4.28274187
N        4.97179233      -4.01265606       4.81134215
C        4.49895717      -5.10318102       4.20483683
C        3.51263631      -4.73530307       3.26201152
C        3.39240000      -3.35107989       3.31927781
C        2.52945838      -2.48437700       2.50564220
C        2.38541677      -2.74996162       1.13316967
C        1.56243826      -1.95844093       0.32447294
C        0.88133985      -0.88133985       0.88133985
C        0.99136844      -0.61144093       2.24213599
C        1.79178024      -1.42616210       3.05225389
C        5.01488951      -6.42549746       4.55953088
C        4.23608466      -7.58126256       4.43995002
C        4.74729276      -8.82148132       4.84528952
C        6.04092932      -8.91080125       5.36130625
C        6.83396628      -7.77489349       5.47307955
C        6.31611555      -6.54197179       5.07522473
H        9.85253650      -4.20725812       6.73970261
H        9.69583164      -3.04691856       5.41602714
H        8.69126311      -4.48100186       5.42382801
H        8.51191851      -2.12930531       7.41075244
H        7.65986030      -3.65893450       7.61774705
H        6.17068994      -1.34170382       3.32337734
H        5.94954544      -0.03272158       4.50297782
H        3.87400157      -0.95746455       4.49125078
H        4.54961632      -1.73111618       5.91036781
H        2.95671983      -5.39424113       2.61003818
H        2.91523321      -3.58304998       0.67489834
H        1.46335782      -2.19249972      -0.73234332
H        0.45027435       0.22017751       2.68641783
H        1.80600084      -1.22603179       4.12003103
H        3.21844775      -7.52864421       4.06285074
H        4.12412800      -9.70834809       4.76753342
H        7.84236244      -7.82755660       5.87457354
H        6.92907205      -5.65211973       5.17754500
C        6.55731399     -10.18347973       5.79401442
C        6.98978616     -11.24934795       6.15640751
Br       7.68905707     -12.97276672       6.74236649
