165
Properties=species:S:1:pos:R:3 pbc="F F F"
C        0.00000000       0.00000000       0.00000000
C        0.88192085       0.88192085      -0.88192085
C        0.39884361       1.33603258      -2.10690777
C        1.20129510       2.15103017      -2.90410972
C        2.48484902       2.50407493      -2.47830655
C        2.98523675       2.03446836      -1.25471306
C        2.16144896       1.22709103      -0.45589241
C        4.32783302       2.38677215      -0.78402268
N        4.53181581       2.62721599       0.51775630
N        5.84729970       2.89712232       0.63162911
C        6.37084108       3.14746177       1.96243270
C        5.58391197       4.16709626       2.79184886
C        6.08284442       3.89970907       4.20349655
C        6.19436689       2.38158046       4.28346706
C        6.38649599       1.89118986       2.84828008
C        6.52587590       2.84285359      -0.57025600
C        7.95887278       3.09462833      -0.77189251
C        8.93413861       2.42830074      -0.01788102
C       10.29540300       2.66816610      -0.23309517
C       10.69945113       3.55297364      -1.23146016
C        9.73873120       4.19933777      -2.00400655
Br      10.28087636       5.36371074      -3.39014219
C        8.37906414       3.98385317      -1.77234580
C        5.55305710       2.49383746      -1.49803363
Cl       5.78998080       2.17723872      -3.15794208
H       -0.59873100       1.06784751      -2.44391423
H        0.82564709       2.51813334      -3.85635397
H        3.07784652       3.16292912      -3.10835324
H        2.52949454       0.86972034       0.50829831
H        7.39224554       3.53016196       1.86324422
H        4.50231553       3.99590832       2.74113805
H        5.77708662       5.19627815       2.47323267
H        7.07133464       4.35248396       4.34529318
H        5.41336489       4.30623744       4.96771719
H        7.02120516       2.07525991       4.93227033
H        5.27489430       1.95441217       4.70135041
H        7.32511188       1.34048167       2.73814459
H        5.57916420       1.19332201       2.59109067
H        8.65203649       1.69975408       0.73692787
H       11.04062162       2.15333472       0.36837078
H       11.75862620       3.72106456      -1.40614906
H        7.64435439       4.50303870      -2.38516874
C       -0.88192085      -0.88192085      -0.88192085
C       -2.13734558      -1.27784720      -0.42659118
C       -2.94520612      -2.07246968      -1.23875919
C       -2.49409234      -2.47389858      -2.49923958
C       -1.22299945      -2.09509257      -2.95632614
C       -0.42651352      -1.28325216      -2.13466672
C       -0.72322360      -2.50299658      -4.27240766
N        0.00412661      -1.64535368      -5.00004842
N        0.32560290      -2.31211798      -6.12627783
C        1.17071401      -1.63400033      -7.09258383
C        0.72547535      -0.21698535      -7.46764937
C        1.97462666       0.36103239      -8.11471598
C        3.12063362      -0.15869044      -7.25442347
C        2.61438984      -1.44408174      -6.59971387
C       -0.17469024      -3.59902309      -6.16527216
C       -0.00198841      -4.56638866      -7.25701654
C        1.26569188      -4.88199815      -7.76401410
C        1.41422465      -5.81720762      -8.79368129
C        0.29746714      -6.47569422      -9.30565785
C       -0.96324082      -6.18888130      -8.78995339
Br      -2.47533810      -7.11246408      -9.44692710
C       -1.11778589      -5.23511981      -7.78235741
C       -0.84427820      -3.74356625      -4.95708374
Cl      -1.59955062      -5.15628345      -4.36932754
H       -2.49613056      -0.96802998       0.55112981
H       -3.93098067      -2.37547580      -0.89367793
H       -3.15653223      -3.07082943      -3.12176721
H        0.55754131      -0.96385399      -2.48460388
H        1.18044938      -2.22492099      -8.01469166
H        0.45306589       0.37800509      -6.58815677
H       -0.13009547      -0.21971663      -8.15031999
H        2.07769977      -0.01771805      -9.13850714
H        1.95433292       1.45419360      -8.16041165
H        4.02120806      -0.33365946      -7.85174333
H        3.37826833       0.57481158      -6.48103597
H        3.24023185      -2.30027928      -6.86740153
H        2.66903971      -1.34233057      -5.50810467
H        2.15931629      -4.41881332      -7.35536566
H        2.40292311      -6.04261579      -9.18589289
H        0.42136596      -7.21456995     -10.09263582
H       -2.11324231      -5.02285738      -7.39646214
C       -0.88192085       0.88192085       0.88192085
C       -0.33456373       1.50775460       1.99946563
C       -1.13885077       2.32206572       2.79551851
C       -2.48751782       2.50318245       2.47653023
C       -3.05022847       1.86050128       1.36368843
C       -2.22578898       1.05560614       0.56303727
C       -4.46155615       2.03045675       1.00661496
N       -4.81380240       2.11064245      -0.28316935
N       -6.15533129       2.23953523      -0.28207361
C       -6.82768255       2.29578945      -1.56760185
C       -6.23665007       3.29232700      -2.56981771
C       -6.83742531       2.82995660      -3.88832497
C       -6.79427291       1.30826070      -3.81005332
C       -6.79473096       0.95688066      -2.32220585
C       -6.70591175       2.24837127       0.98470247
C       -8.13156432       2.38155136       1.31227794
C       -9.09834997       1.54849612       0.73347428
C      -10.45044147       1.67820968       1.06801312
C      -10.84854621       2.62117631       2.01416241
C       -9.89225970       3.43504667       2.61476914
Br     -10.41954076       4.68263387       3.93255466
C       -8.54591498       3.32756355       2.26178457
C       -5.61707495       2.09474446       1.83310877
Cl      -5.65877092       1.93493397       3.53145671
H        0.71354067       1.37377261       2.25279879
H       -0.71473313       2.82252429       3.66287698
H       -3.08395528       3.16529303       3.09988057
H       -2.64456138       0.56424046      -0.31788528
H       -7.86970291       2.58713887      -1.39767851
H       -5.14314123       3.23200225      -2.61805768
H       -6.50656369       4.32622767      -2.33265927
H       -7.87741942       3.16822805      -3.96712205
H       -6.29128220       3.21535549      -4.75475255
H       -7.64229512       0.85691305      -4.33501344
H       -5.87897471       0.92928682      -4.28030547
H       -7.65465465       0.33352566      -2.06073135
H       -5.89694202       0.37091840      -2.08646489
H       -8.81417327       0.77435001       0.02633942
H      -11.19100455       1.03334941       0.60123161
H      -11.89792125       2.70451908       2.28339949
H       -7.81512593       3.97693135       2.74050455
C        0.88192085      -0.88192085       0.88192085
C        1.99125905      -1.51931035       0.33121456
C        2.80150492      -2.31363620       1.14129387
C        2.49751576      -2.47363255       2.49608218
C        1.37084921      -1.85041813       3.05315084
C        0.57256823      -1.04218553       2.22967864
C        1.02674053      -2.00211777       4.46976955
N        0.53645580      -0.95652181       5.14829789
N        0.30442861      -1.41367682       6.39468748
C       -0.28866543      -0.49490898       7.34962660
C        0.38989638       0.87526976       7.44453275
C       -0.66045221       1.71523652       8.15474566
C       -1.98144954       1.26661072       7.54054055
C       -1.75280436      -0.15510192       7.02710821
C        0.63193509      -2.74510579       6.56194459
C        0.50108549      -3.52379785       7.80051028
C       -0.70565111      -3.57493994       8.51103153
C       -0.81799438      -4.33391173       9.68074692
C        0.26734672      -5.08088127      10.13565694
C        1.46216341      -5.05803990       9.42187220
Br       2.92205218      -6.10553038      10.00714672
C        1.58616477      -4.27890911       8.27018921
C        1.08637283      -3.14622924       5.31232612
Cl       1.55245801      -4.72157767       4.85112593
H        2.23553973      -1.39807523      -0.72058423
H        3.67548511      -2.80477068       0.71987861
H        3.16250173      -3.07711567       3.10951147
H       -0.29684560      -0.53461431       2.65314784
H       -0.23618246      -0.95162713       8.34371861
H        0.60175434       1.30184047       6.45717193
H        1.33103625       0.83265092       8.00174676
H       -0.65625360       1.49383194       9.22861097
H       -0.49046801       2.78921723       8.03157038
H       -2.79642188       1.30958987       8.27020648
H       -2.25473442       1.92293576       6.70562624
H       -2.43767212      -0.86429892       7.50082215
H       -1.95807562      -0.19013246       5.94933870
H       -1.58232837      -3.03952783       8.15766324
H       -1.75692924      -4.35389432      10.22862049
H        0.16816159      -5.68300227      11.03467596
H        2.53095410      -4.27200100       7.72960674
