194
Properties=species:S:1:pos:R:3 pbc="F F F"
C        1.79182488       1.79182488      -1.79182488
C        1.30874763       2.24593661      -3.01681179
C        2.11119913       3.06093419      -3.81401375
C        3.39475305       3.41397895      -3.38821057
C        3.89514077       2.94437239      -2.16461708
C        3.07135299       2.13699505      -1.36579643
C        5.23773705       3.29667617      -1.69392670
N        5.44171983       3.53712002      -0.39214772
N        6.75720373       3.80702634      -0.27827491
C        7.28074510       4.05736579       1.05252868
C        6.49381599       5.07700028       1.88194484
C        6.99274844       4.80961309       3.29359253
C        7.10427091       3.29148449       3.37356304
C        7.29640001       2.80109388       1.93837605
C        7.43577992       3.75275762      -1.48016002
C        8.86877681       4.00453235      -1.68179653
C        9.84404263       3.33820477      -0.92778504
C       11.20530702       3.57807012      -1.14299920
C       11.60935516       4.46287767      -2.14136418
C       10.64863522       5.10924179      -2.91391057
C        9.28896816       4.89375719      -2.68224982
C        6.46296112       3.40374149      -2.40793765
Cl       6.69988483       3.08714275      -4.06784611
H        0.31117302       1.97775153      -3.35381826
H        1.73555112       3.42803736      -4.76625799
H        3.98775054       4.07283314      -4.01825727
H        3.43939856       1.77962436      -0.40160571
H        8.30214956       4.44006598       0.95334020
H        5.41221956       4.90581234       1.83123403
H        6.68699064       6.10618217       1.56332865
H        7.98123867       5.26238799       3.43538916
H        6.32326891       5.21614146       4.05781317
H        7.93110918       2.98516393       4.02236631
H        6.18479833       2.86431620       3.79144639
H        8.23501590       2.25038569       1.82824057
H        6.48906822       2.10322603       1.68118665
H        9.56194051       2.60965810      -0.17297615
H       11.95052565       3.06323875      -0.54153325
H       12.66853022       4.63096858      -2.31605309
H        8.55425842       5.41294272      -3.29507277
C       11.06175847       5.99651255      -3.97016801
C       11.40774920       6.73960180      -4.85478362
Br      11.96718694       7.94111428      -6.28513224
C       -1.79182488      -1.79182488      -1.79182488
C       -2.96664331      -2.33145891      -1.27339381
C       -3.77594576      -3.12582877      -2.08437254
C       -3.40607129      -3.38353176      -3.40733953
C       -2.21447242      -2.85938389      -3.93027393
C       -1.41701814      -2.04967731      -3.10744903
C       -1.80062693      -3.11478408      -5.31292891
N       -1.21111436      -2.14102594      -6.01884728
N       -0.93686342      -2.68432918      -7.22131238
C       -0.23687467      -1.85931731      -8.18939025
C       -0.82577032      -0.46115277      -8.40194834
C        0.31138884       0.27415556      -9.09431341
C        1.56637790      -0.21077232      -8.37779793
C        1.22442809      -1.58402534      -7.79952059
C       -1.33350366      -4.00276301      -7.33243089
C       -1.17977337      -4.86033225      -8.51500007
C        0.05992699      -5.02195946      -9.14799997
C        0.19250666      -5.85470965     -10.26417335
C       -0.90817695      -6.56509444     -10.74032562
C       -2.13787590      -6.43214966     -10.10176202
C       -2.27984947      -5.57972987      -9.00539582
C       -1.88096234      -4.30207737      -6.09160055
Cl      -2.46579330      -5.81816541      -5.57091497
H       -3.26222472      -2.13389121      -0.24662688
H       -4.70015083      -3.54073037      -1.68896527
H       -4.07028715      -3.98413769      -4.02441611
H       -0.49626421      -1.61825982      -3.50610460
H       -0.26038789      -2.37102126      -9.15746620
H       -1.06712604       0.03502792      -7.45469975
H       -1.73480925      -0.48383983      -9.01119509
H        0.35458411      -0.01053341     -10.15228820
H        0.19930555       1.36146428      -9.04236703
H        2.42235654      -0.25762405      -9.05863930
H        1.83087833       0.47786814      -7.56641460
H        1.89127346      -2.35783799      -8.19059650
H        1.36605530      -1.56602099      -6.71114192
H        0.94572540      -4.51671090      -8.77358927
H        1.15799508      -5.96042812     -10.75286460
H       -0.79460674      -7.22458125     -11.59636391
H       -3.25154337      -5.48714737      -8.52358316
C       -3.26915514      -7.19153060     -10.56775329
C       -4.21660151      -7.82751214     -10.95802098
Br      -5.74854215      -8.85584049     -11.58905082
C       -1.79182488       1.79182488       1.79182488
C       -1.50943048       1.91152863       3.15053693
C       -2.30857272       2.72695666       3.95061769
C       -3.39000219       3.41437642       3.39256396
C       -3.69203838       3.28322618       2.02886568
C       -2.87071079       2.47085575       1.23257794
C       -4.82078089       3.99035930       1.41719973
N       -4.69728570       4.49220184       0.18150003
N       -5.89044083       5.05206836      -0.10000420
C       -6.06621395       5.63663729      -1.41726902
C       -4.95491279       6.59373644      -1.85977779
C       -5.18015151       6.68948754      -3.36087004
C       -5.53527045       5.26788222      -3.78096031
C       -6.11161495       4.58696001      -2.53945711
C       -6.80852453       4.93483914       0.92533388
C       -8.18509169       5.44726869       0.92274531
C       -9.07809514       5.14632638      -0.11438908
C      -10.39068147       5.62964043      -0.09394555
C      -10.83756171       6.39210275       0.98393254
C       -9.96597797       6.67372159       2.03208802
C       -8.64716445       6.21705544       2.00075528
C       -6.13214479       4.22994556       1.91254991
Cl      -6.76913980       3.68641657       3.39931730
H       -0.66915944       1.38216810       3.59141527
H       -2.08646974       2.83353446       5.00984227
H       -3.97940629       4.06421417       4.03522049
H       -3.08125935       2.37409740       0.16527187
H       -7.00242667       6.20502877      -1.41858010
H       -3.95588919       6.18966810      -1.65875942
H       -5.02892489       7.56865365      -1.36773438
H       -6.02110209       7.36028193      -3.57314653
H       -4.30266506       7.07088824      -3.89195609
H       -6.24519553       5.26299143      -4.61428015
H       -4.63684017       4.73410605      -4.11327808
H       -7.13349312       4.23851917      -2.71485126
H       -5.51219426       3.69905580      -2.30014245
H       -8.77310591       4.51757085      -0.94610198
H      -11.06863501       5.39864439      -0.91198177
H      -11.86364071       6.74907198       1.00283920
H       -7.98097487       6.45249591       2.82880312
C      -10.43349800       7.43038273       3.16455830
C      -10.82504602       8.06408644       4.11300216
Br     -11.45814606       9.08873173       5.64655567
C        1.79182488      -1.79182488       1.79182488
C        2.87631649      -2.46315152       1.23202803
C        3.68688246      -3.25748747       2.04177714
C        3.40787544      -3.38357579       3.40549135
C        2.30590668      -2.72592945       3.97229411
C        1.50730536      -1.91821302       3.14862610
C        1.98824839      -2.84163564       5.39845590
N        1.53349707      -1.77251942       6.06497108
N        1.31813356      -2.19933699       7.32503443
C        0.76377295      -1.24924491       8.27256436
C        1.47186437       0.10820769       8.32521476
C        0.45376362       0.98404414       9.03904953
C       -0.88853614       0.55052932       8.46125782
C       -0.69953308      -0.88576178       7.97288915
C        1.62191229      -3.53359935       7.51318591
C        1.50098659      -4.28407632       8.77004278
C        0.30845965      -4.29572226       9.50585054
C        0.20500493      -5.02827048      10.69310092
C        1.28414442      -5.78819537      11.14125721
C        2.46411361      -5.80465726      10.40301672
C        2.58000529      -5.05183391       9.23313597
C        2.04208224      -3.96937784       6.26318018
Cl       2.46638630      -5.56310416       5.82538323
H        3.10113808      -2.36841158       0.17319315
H        4.54176995      -3.77511053       1.61296599
H        4.07304181      -3.98813267       4.01766648
H        0.65735896      -1.38421314       3.57905653
H        0.82757446      -1.68665567       9.27464522
H        1.67181923       0.51013667       7.32511531
H        2.42330073       0.05740709       8.86395053
H        0.47573848       0.78447065      10.11696967
H        0.64294795       2.05154209       8.89019135
H       -1.68715402       0.62522671       9.20628753
H       -1.16568750       1.19527846       7.61863409
H       -1.38869801      -1.57082421       8.47503483
H       -0.92778846      -0.93842326       6.90047281
H       -0.56429710      -3.74953068       9.15934119
H       -0.72257415      -5.01763130      11.26024049
H        1.19141436      -6.36973346      12.05440407
H        3.51332190      -5.07551532       8.67343669
C        3.56913270      -6.61653932      10.84276702
C        4.49458619      -7.29649054      11.21105789
Br       5.99096621      -8.39591416      11.80655309
C       -0.00445707       0.01189536      -1.78238275
H       -0.66409135       0.67374010      -2.43557963
H        0.65740317      -0.63156657      -2.45157240
C       -0.90989263      -0.90692880      -0.91072765
C        0.90977584       0.90977584      -0.90977584
C       -0.00465871       1.77757030       0.00794375
H       -0.66225468       2.44313916      -0.64384735
H        0.64322798       2.43503045       0.67728295
C       -1.78241447       0.00034974      -0.00472694
H       -2.45427497      -0.65498947       0.64260836
H       -2.43311707       0.67328779      -0.65473579
C       -0.91132561       0.90220522       0.91563759
C       -0.01476271      -0.02253852       1.78660255
H       -0.67934791      -0.69751639       2.42135241
H        0.63392994       0.61504881       2.47327442
C        0.01484550      -1.77751727      -0.01636693
H        0.67870853      -2.42144646      -0.68295456
H       -0.62264859      -2.45592969       0.64226336
C        1.78714474       0.01002794       0.00389507
H        2.44202412       0.67113390       0.66197326
H        2.45385902      -0.65136977      -0.64189061
C        0.91606151      -0.90478549       0.90901405
