178
Properties=species:S:1:pos:R:3 pbc="F F F"
C        1.77700367       1.77700367      -1.77700367
C        2.63193231       2.75440781      -1.32298316
C        3.24724581       3.30595977      -2.47293473
C        2.72252193       2.63917678      -3.56416532
O        1.81862503       1.70112931      -3.13416852
C        2.96894601       2.79641771      -4.98280745
O        3.81570336       3.55930663      -5.43974240
N        2.15317419       2.02466105      -5.77786191
C        2.24264511       2.01845834      -7.21523684
C        2.95101831       0.78604656      -7.71037591
C        2.23344196      -0.37551162      -8.02422049
C        2.89700072      -1.51600426      -8.48268859
C        4.28942247      -1.51516241      -8.63747969
C        5.00956677      -0.36369105      -8.29441090
C        4.34645600       0.77586313      -7.83452281
C        5.00585953      -2.74972726      -9.11115939
N        5.36916434      -3.59055075      -8.00186322
C        6.04227777      -4.77535179      -8.18194474
O        6.37202792      -5.18218099      -9.29309726
C        6.32094951      -5.48837225      -6.95382413
C        6.97382343      -6.68515102      -6.72588152
C        6.95005875      -6.90301853      -5.32662696
C        6.28493321      -5.82824857      -4.78334533
Br       5.94976373      -5.57906330      -2.96545801
O        5.89944025      -4.96362610      -5.75877924
H        2.79450470       3.03751817      -0.29241374
H        3.97908774       4.10187088      -2.51832109
H        1.53715447       1.36665430      -5.31644040
H        2.74914896       2.92026714      -7.57764477
H        1.21937012       2.04921680      -7.60612994
H        1.15121884      -0.39942452      -7.91709763
H        2.32008572      -2.40762092      -8.72031568
H        6.09399929      -0.34688973      -8.38296347
H        4.92409238       1.66100540      -7.57111730
H        5.91388088      -2.48481882      -9.66608336
H        4.37437040      -3.32694567      -9.79750723
H        5.13307131      -3.31059012      -7.05617646
H        7.41011844      -7.31582810      -7.48927497
H        7.36657080      -7.74109943      -4.78541510
C       -1.77700367      -1.77700367      -1.77700367
C       -2.72869902      -2.65950246      -1.32112180
C       -3.30349861      -3.24988517      -2.47275654
C       -2.65997071      -2.70022247      -3.56567084
O       -1.72177406      -1.79648556      -3.13566324
C       -2.82121313      -2.94235535      -4.98460269
O       -3.68811818      -3.67756560      -5.44906861
N       -1.90038846      -2.28644437      -5.76886432
C       -1.89240654      -2.37782331      -7.20611043
C       -2.47527272      -1.13948874      -7.83267931
C       -1.65641105      -0.05440397      -8.17133582
C       -2.20376730       1.09208986      -8.75200761
C       -3.57907674       1.17364995      -9.00631296
C       -4.40173056       0.10088106      -8.63943711
C       -3.85484791      -1.04454646      -8.05744756
C       -4.17125419       2.41621505      -9.61225252
N       -4.54673915       3.35728189      -8.59101955
C       -5.11911472       4.56856822      -8.89832422
O       -5.34329555       4.91551451     -10.05516316
C       -5.42756975       5.38532888      -7.74416052
C       -6.00635457       6.63657296      -7.64477232
C       -6.06101775       6.95260011      -6.26524954
C       -5.51306527       5.87751480      -5.60447950
Br      -5.31961556       5.73800163      -3.75454451
O       -5.12620841       4.92091878      -6.48930376
H       -2.98011796      -2.85606080      -0.28825785
H       -4.08607655      -3.99602561      -2.51717755
H       -1.27095683      -1.63978063      -5.30951170
H       -2.43707320      -3.26732712      -7.54266055
H       -0.85006293      -2.50534516      -7.51930876
H       -0.58492643      -0.09559888      -7.98836664
H       -1.54945269       1.92348807      -9.00681586
H       -5.47614910       0.15063939      -8.80456332
H       -4.51114584      -1.86759598      -7.77747326
H       -5.05666237       2.17361888     -10.21210193
H       -3.45513576       2.89874750     -10.28854371
H       -4.39550209       3.13095764      -7.61411320
H       -6.34379814       7.23849250      -8.47825968
H       -6.45148172       7.85358207      -5.81298682
C       -1.77700367       1.77700367       1.77700367
C       -2.44943734       1.35823801       2.90164794
C       -3.12616127       2.49632615       3.40365289
C       -2.83547337       3.54234507       2.54804558
O       -2.00738875       3.09770266       1.54883144
C       -3.26492171       4.92563012       2.55761935
O       -3.94230678       5.41528482       3.45716078
N       -2.85986015       5.64134252       1.45449448
C       -3.16635789       7.03679166       1.27319074
C       -1.97094959       7.89970807       1.57678312
C       -1.06506283       8.24993094       0.56715707
C        0.04260772       9.05056961       0.85572315
C        0.26347820       9.51702060       2.15819734
C       -0.62560552       9.14131567       3.17336544
C       -1.73197140       8.33959558       2.88527496
C        1.46734433      10.36166935       2.47296664
N        2.59194090       9.53980975       2.83260796
C        3.80743450      10.08473716       3.17156806
O        4.00287376      11.29734711       3.18847084
C        4.82144465       9.10634012       3.50150592
C        6.13802658       9.25886200       3.89371851
C        6.66209655       7.95625768       4.07950604
C        5.63636354       7.08633170       3.79006180
Br       5.75233586       5.22609932       3.86239498
O        4.51555795       7.77077504       3.43937631
H       -2.45416565       0.35816130       3.31210966
H       -3.76214306       2.56023102       4.27690564
H       -2.23908979       5.18083875       0.80032064
H       -4.01771351       7.33258025       1.89676711
H       -3.47415266       7.17054532       0.23001887
H       -1.21751555       7.90429027      -0.45291386
H        0.73390165       9.31029272       0.05638941
H       -0.46169781       9.47102577       4.19734945
H       -2.41104453       8.05659426       3.68857628
H        1.25481081      11.05094942       3.29900680
H        1.74537227      10.97973465       1.61056957
H        2.49718715       8.53020916       2.84563564
H        6.64667540      10.20480210       4.02543862
H        7.66388876       7.68903744       4.38573778
C        1.77700367      -1.77700367       1.77700367
C        2.79899383      -1.32890207       2.58142739
C        3.33235134      -2.47594997       3.21783900
C        2.61051390      -3.56019693       2.75515319
O        1.65631190      -3.12841785       1.86919311
C        2.72780139      -4.97426382       3.04610596
O        3.50411434      -5.42870296       3.88193509
N        1.90094024      -5.76892539       2.28583151
C        1.84878775      -7.20128268       2.42626986
C        0.62601337      -7.62800220       3.19342521
C       -0.57025681      -7.92488691       2.52752073
C       -1.70155593      -8.31976414       3.24547684
C       -1.65673216      -8.42681054       4.64166136
C       -0.46944696      -8.10029232       5.30944126
C        0.66097922      -7.70394830       4.59191442
C       -2.88063827      -8.83174491       5.41618501
N       -3.66967652      -7.68162183       5.76853151
C       -4.83537821      -7.79655509       6.48769384
O       -5.26802055      -8.88069644       6.87026829
C       -5.49570214      -6.53516636       6.74693718
C       -6.66013874      -6.24283739       7.43185528
C       -6.83076283      -4.83837968       7.36605034
C       -5.76226369      -4.35651946       6.64577421
Br      -5.46311298      -2.56110577       6.23816566
O       -4.94566559      -5.37454282       6.26571616
H        3.12273475      -0.30404276       2.69765910
H        4.15164501      -2.52443470       3.92320000
H        1.23770083      -5.30583091       1.67671743
H        2.75504249      -7.57785358       2.91416480
H        1.82993970      -7.62776210       1.41701505
H       -0.62877592      -7.85403335       1.44363453
H       -2.62062913      -8.54526875       2.70814086
H       -0.41731798      -8.15227091       6.39512010
H        1.57449239      -7.45244273       5.12927996
H       -2.60288376      -9.36433885       6.33369032
H       -3.50296045      -9.51841752       4.82947489
H       -3.36608984      -6.75505563       5.48969186
H       -7.30070273      -6.96807829       7.91618976
H       -7.63459370      -4.25393170       7.79154847
C       -0.00445707       0.01189536      -1.78238275
H       -0.66409135       0.67374010      -2.43557963
H        0.65740317      -0.63156657      -2.45157240
C       -0.90989263      -0.90692880      -0.91072765
C        0.90977584       0.90977584      -0.90977584
C       -0.00465871       1.77757030       0.00794375
H       -0.66225468       2.44313916      -0.64384735
H        0.64322798       2.43503045       0.67728295
C       -1.78241447       0.00034974      -0.00472694
H       -2.45427497      -0.65498947       0.64260836
H       -2.43311707       0.67328779      -0.65473579
C       -0.91132561       0.90220522       0.91563759
C       -0.01476271      -0.02253852       1.78660255
H       -0.67934791      -0.69751639       2.42135241
H        0.63392994       0.61504881       2.47327442
C        0.01484550      -1.77751727      -0.01636693
H        0.67870853      -2.42144646      -0.68295456
H       -0.62264859      -2.45592969       0.64226336
C        1.78714474       0.01002794       0.00389507
H        2.44202412       0.67113390       0.66197326
H        2.45385902      -0.65136977      -0.64189061
C        0.91606151      -0.90478549       0.90901405
