53
Properties=species:S:1:pos:R:3 pbc="F F F"
C        0.00000000       0.00000000       0.00000000
F        0.56850684       2.49623623      -4.12400951
C        1.09290397       2.10335766      -2.95658947
C        0.34365457       1.30045715      -2.10838075
C        0.88882248       0.88882248      -0.88882248
C        2.18723135       1.28308714      -0.51962926
Cl       2.86696375       0.77389801       0.99349559
C        2.92587800       2.09695709      -1.39701640
C        2.37629900       2.50602615      -2.61555489
H       -0.65755494       1.00588281      -2.41050278
H        2.93151160       3.13453835      -3.30597931
C        4.26124321       2.55069521      -1.10629064
C        5.37961158       2.93070088      -0.86280781
Br       7.18791864       3.54513791      -0.46911667
F       -4.40944830      -1.74766704      -1.03163725
C       -3.10620626      -1.71098451      -1.33566034
C       -2.25005442      -0.92891500      -0.57352306
C       -0.88882248      -0.88882248      -0.88882248
C       -0.38575251      -1.63418170      -1.97001354
Cl       1.30341374      -1.58666483      -2.36411507
C       -1.27427822      -2.41884054      -2.72673273
C       -2.63476601      -2.45564458      -2.40746945
H       -2.65680519      -0.35994959       0.25792413
H       -3.33604046      -3.05570237      -2.98028645
C       -0.85301352      -3.21491975      -3.85029579
C       -0.50020433      -3.88163609      -4.79127985
Br       0.07025829      -4.95966002      -6.31277149
F       -1.31560181       1.42262498       4.45052579
C       -1.48450899       1.54060384       3.12773827
C       -0.71446519       0.76758458       2.27044270
C       -0.88882248       0.88882248       0.88882248
C       -1.83682894       1.78663240       0.36648641
Cl      -2.05578878       1.93959272      -1.34801533
C       -2.60462805       2.55860853       1.25661491
C       -2.42657057       2.43378034       2.63752912
H        0.01288171       0.07946004       2.69225232
H       -3.01019682       3.02146524       3.34036721
C       -3.59831068       3.50335630       0.81656208
C       -4.43051988       4.29458256       0.44801783
Br      -5.77613177       5.57392849      -0.14788704
F        4.27606016      -2.17581503       0.73687740
C        3.03628789      -1.93540663       1.18115659
C        2.18384898      -1.14142052       0.42722297
C        0.88882248      -0.88882248       0.88882248
C        0.44831417      -1.43337171       2.10826187
Cl      -1.15858410      -1.12179431       2.68415595
C        1.33163498      -2.23473745       2.85347906
C        2.62579101      -2.48445523       2.38763379
H        2.54170298      -0.72940041      -0.51227275
H        3.32199155      -3.10079524       2.94924248
C        0.97137601      -2.83500513       4.11184792
C        0.66965912      -3.33772931       5.16573184
Br       0.18180843      -4.15059179       6.86977300
