66
Properties=species:S:1:pos:R:3 pbc="F F F"
F        1.47841087       3.40614025      -5.03391353
C        2.00280799       3.01326169      -3.86649349
C        1.25355860       2.21036117      -3.01828478
C        1.79872650       1.79872650      -1.79872650
C        3.09713538       2.19299116      -1.42953328
Cl       3.77686777       1.68380204       0.08359157
C        3.83578202       3.00686112      -2.30692042
Br       5.60016717       3.60637411      -1.92279164
C        3.28620302       3.41593017      -3.52545891
H        0.25234908       1.91578684      -3.32040680
H        3.84141563       4.04444238      -4.21588334
F       -5.16606539      -3.13346266      -1.61893660
C       -3.93576154      -2.87033639      -2.07646525
C       -3.08387651      -2.07502145      -1.32330659
C       -1.79872650      -1.79872650      -1.79872650
C       -1.36755112      -2.32088302      -3.03122568
Cl       0.22707448      -1.97985973      -3.62429298
C       -2.25009546      -3.12411178      -3.77535632
Br      -1.78611876      -3.88838022      -5.45483393
C       -3.53435611      -3.39757200      -3.29566400
H       -3.43443615      -1.68050260      -0.37360397
H       -4.22979979      -4.01572765      -3.85621390
F       -1.81229982       2.83070956       5.27545527
C       -2.17782279       2.71163864       3.99310176
C       -1.41927993       1.92475385       3.13817077
C       -1.79872650       1.79872650       1.79872650
C       -2.94053483       2.46287972       1.31624528
Cl      -3.41434021       2.30858747      -0.34584944
C       -3.69221016       3.25429557       2.20305783
Br      -5.25483141       4.20152862       1.67297288
C       -3.30866996       3.37720827       3.54171387
H       -0.54046437       1.41924555       3.52883280
H       -3.87658144       3.98383774       4.24132216
F        5.08399978      -3.31017602       1.52428885
C        3.89274512      -2.96296412       2.02685394
C        3.04314434      -2.16273077       1.27632945
C        1.79872650      -1.79872650       1.79872650
C        1.40604151      -2.23800091       3.07561740
Cl      -0.13796980      -1.78798961       3.72705842
C        2.28538358      -3.04812526       3.81605472
Br       1.87099802      -3.70560961       5.55272527
C        3.52883412      -3.40946335       3.28929464
H        3.36362102      -1.83298927       0.29193242
H        4.22115644      -4.03433921       3.84624569
C       -0.00445707       0.01189536      -1.78238275
H       -0.66409135       0.67374010      -2.43557963
H        0.65740317      -0.63156657      -2.45157240
C       -0.90989263      -0.90692880      -0.91072765
C        0.90977584       0.90977584      -0.90977584
C       -0.00465871       1.77757030       0.00794375
H       -0.66225468       2.44313916      -0.64384735
H        0.64322798       2.43503045       0.67728295
C       -1.78241447       0.00034974      -0.00472694
H       -2.45427497      -0.65498947       0.64260836
H       -2.43311707       0.67328779      -0.65473579
C       -0.91132561       0.90220522       0.91563759
C       -0.01476271      -0.02253852       1.78660255
H       -0.67934791      -0.69751639       2.42135241
H        0.63392994       0.61504881       2.47327442
C        0.01484550      -1.77751727      -0.01636693
H        0.67870853      -2.42144646      -0.68295456
H       -0.62264859      -2.45592969       0.64226336
C        1.78714474       0.01002794       0.00389507
H        2.44202412       0.67113390       0.66197326
H        2.45385902      -0.65136977      -0.64189061
C        0.91606151      -0.90478549       0.90901405
