185
Properties=species:S:1:pos:R:3 pbc="F F F"
C        0.00000000       0.00000000       0.00000000
C        4.45846110       5.67520557       3.74703603
C        4.72561576       5.16936364       2.36104025
C        3.77973038       5.34466125       1.34489289
C        4.01416043       4.84312857       0.06191461
C        5.19537193       4.14851281      -0.22379031
C        6.13572548       3.96308513       0.80013627
C        5.89932247       4.46287228       2.08188416
C        5.47018475       3.63543427      -1.61387998
N        5.55092782       2.17959772      -1.67074108
N        6.78832135       1.63270194      -1.67359307
C        6.59612404       0.31051201      -1.60959683
C        5.20743727       0.02629970      -1.64441516
C        4.53940810       1.24133052      -1.70155488
C        3.09316122       1.48146957      -1.70116374
C        2.48614072       2.42243979      -2.54460467
C        1.10219892       2.62031050      -2.52935188
C        0.29579487       1.84772227      -1.69376160
C        0.88117062       0.88117062      -0.88117062
C        2.26561577       0.70284705      -0.87571248
C        7.72672151      -0.62104505      -1.51091076
C        7.53046139      -2.00940851      -1.46511024
C        8.61828031      -2.88315048      -1.35811298
C        9.91610093      -2.37954934      -1.29391055
C       10.12197584      -1.00401369      -1.33722306
C        9.04104992      -0.12796333      -1.44513693
H        5.39110810       5.96437041       4.24245106
H        3.96808435       4.89683321       4.34009521
H        3.81502028       6.56065389       3.72380276
H        2.85162263       5.87625569       1.54612363
H        3.26438957       5.00338658      -0.70818344
H        7.06205158       3.42304762       0.60403737
H        6.64088271       4.29635926       2.86017187
H        6.42913390       4.03885960      -1.96686942
H        4.72320073       3.97330963      -2.33344900
H        4.73609166      -0.94516235      -1.61897233
H        3.07492938       2.99805256      -3.25437090
H        0.65106699       3.36468662      -3.17663708
H       -0.78120217       1.99402726      -1.69687367
H        2.70295491      -0.05305637      -0.22560359
H        6.53244467      -2.43624571      -1.51029057
H        8.45059938      -3.95666658      -1.32383751
H       10.75597688      -3.06450678      -1.21002624
H        9.21894005       0.94468106      -1.47548214
C       11.46157698      -0.48034449      -1.26765763
C       12.58349294      -0.04177153      -1.20939658
Br      14.39753615       0.66736385      -1.11519340
C       -8.01928366       1.30847708       0.32417594
C       -7.32601373       0.58020909      -0.78813451
C       -6.63332638      -0.60933594      -0.53683642
C       -5.95865198      -1.26973200      -1.56699041
C       -5.95723108      -0.74553449      -2.86490948
C       -6.64150421       0.45376371      -3.11093384
C       -7.31336502       1.11350506      -2.08045065
C       -5.26110117      -1.47069322      -3.98770462
N       -4.14744661      -0.70959471      -4.54422531
N       -4.38161307      -0.02540647      -5.68759681
C       -3.26471491       0.67185288      -5.92337086
C       -2.28738634       0.35532402      -4.94608981
C       -2.86180802      -0.55268361      -4.06780188
C       -2.27501363      -1.14087152      -2.85990938
C       -2.41772138      -2.49774903      -2.53771476
C       -1.83596535      -3.03185732      -1.38403863
C       -1.06529383      -2.22073776      -0.55124716
C       -0.88117062      -0.88117062      -0.88117062
C       -1.48507232      -0.34117272      -2.01793026
C       -3.17305310       1.60757906      -7.05111319
C       -1.99642860       2.32476276      -7.31449727
C       -1.92971848       3.22241641      -8.38594074
C       -3.03932935       3.41551057      -9.20664335
C       -4.21186110       2.71020223      -8.95352634
C       -4.28377815       1.81278662      -7.88723198
H       -8.90263312       1.83765254      -0.04804687
H       -7.33627096       2.03345917       0.77798944
H       -8.35984216       0.61137131       1.09659944
H       -6.61595425      -1.03180448       0.46600404
H       -5.43749417      -2.19639118      -1.34207424
H       -6.65294901       0.88420318      -4.11231599
H       -7.82783532       2.04731083      -2.29654561
H       -5.97816235      -1.65803046      -4.79867011
H       -4.89644389      -2.45209116      -3.68142432
H       -1.28304467       0.74577867      -4.87263563
H       -2.95773711      -3.17411408      -3.19550164
H       -1.97076784      -4.08040813      -1.14121472
H       -0.60179431      -2.64399148       0.33608702
H       -1.33476148       0.71137664      -2.25211728
H       -1.11352240       2.20075126      -6.69371839
H       -1.01102931       3.77100503      -8.57774602
H       -2.98012180       4.11511444     -10.03648899
H       -5.20850426       1.27098555      -7.70158455
C       -5.36125767       2.91002550      -9.79765796
C       -6.32387730       3.07737749     -10.50461819
Br      -7.88035182       3.34797150     -11.64771308
C        2.25180259       0.87362279       7.76481043
C        1.31034026       1.79529321       7.04898620
C        0.09194734       1.32112779       6.55031828
C       -0.76985508       2.17210016       5.85341915
C       -0.42251385       3.51035994       5.63480127
C        0.80520365       3.97935779       6.12452020
C        1.66608094       3.12762022       6.81877132
C       -1.36260566       4.44234135       4.91455200
N       -0.81330488       4.93304793       3.65491380
N       -0.26124831       6.16810759       3.66526044
C        0.26650966       6.33517699       2.44756555
C       -0.03040814       5.20929524       1.63844875
C       -0.74448805       4.31472057       2.42308489
C       -1.23411076       2.98129792       2.06038585
C       -2.51213627       2.52670424       2.41434466
C       -2.95496943       1.25354204       2.04334982
C       -2.13638679       0.42633790       1.27455406
C       -0.88117062       0.88117062       0.88117062
C       -0.42779436       2.14122843       1.27515251
C        1.03090089       7.54137202       2.10611609
C        1.56783188       7.73015601       0.82383899
C        2.30491308       8.87977715       0.51837874
C        2.51581744       9.85447627       1.49180331
C        1.98877685       9.67663548       2.76732659
C        1.25185866       8.53278968       3.07729250
H        2.82601428       1.41582421       8.52321752
H        2.94634966       0.42115442       7.05001759
H        1.70480395       0.07712455       8.27955080
H       -0.19572953       0.28271297       6.70331218
H       -1.71307773       1.77641012       5.48647173
H        1.10023943       5.01648125       5.96482001
H        2.61672063       3.51457412       7.17921660
H       -1.57018319       5.31272206       5.55195767
H       -2.33118466       3.98058102       4.71819368
H        0.24832744       5.05122196       0.60700712
H       -3.20174570       3.16704572       2.95856142
H       -3.94057011       0.91149932       2.34032126
H       -2.49109204      -0.55641410       0.97502083
H        0.56108601       2.47320819       0.96337996
H        1.42500735       6.98975794       0.04173895
H        2.71473529       9.01223912      -0.47973353
H        3.09012399      10.74439198       1.24722836
H        0.84861384       8.40795662       4.07976048
C        2.20783165      10.68035385       3.77636793
C        2.39129004      11.52096799       4.62144005
Br       2.68792674      12.88016995       5.98785020
C       -3.69745329      -5.93942082       4.14466311
C       -2.22505528      -5.89399676       3.86499767
C       -1.43746527      -4.85136398       4.36560003
C       -0.07174362      -4.79075199       4.07636602
C        0.52761112      -5.76750516       3.27255877
C       -0.26698775      -6.80411293       2.76154916
C       -1.63160616      -6.86230184       3.04961492
C        2.00649138      -5.72757157       2.98543606
N        2.29984092      -5.53192838       1.56949733
N        2.61205902      -6.63357461       0.84898272
C        2.71777744      -6.21575566      -0.41730021
C        2.54211101      -4.80991771      -0.47387659
C        2.28939637      -4.37380480       0.81909234
C        1.98857775      -3.01303382       1.27418296
C        2.55269645      -2.46555906       2.43492967
C        2.25528608      -1.15987588       2.83669934
C        1.41534700      -0.36411384       2.05781791
C        0.88117062      -0.88117062       0.88117062
C        1.15555857      -2.19408351       0.49453323
C        2.97094675      -7.15915629      -1.51351582
C        3.10375128      -6.72253871      -2.84012687
C        3.33217989      -7.63620531      -3.87514240
C        3.42908050      -8.99828807      -3.59690643
C        3.29758050      -9.44228742      -2.28468271
C        3.07094415      -8.53559536      -1.24831599
H       -4.05299535      -6.97393698       4.19208582
H       -4.24336013      -5.41231254       3.35586995
H       -3.92803943      -5.47232292       5.10758791
H       -1.88363185      -4.07775078       4.98763576
H        0.51493384      -3.97360323       4.48742252
H        0.17516572      -7.57524451       2.13065160
H       -2.22677400      -7.67159317       2.63225092
H        2.46218092      -6.67826253       3.29441947
H        2.51734604      -4.95325534       3.55935797
H        2.58057401      -4.17899537      -1.34966773
H        3.26100071      -3.03338134       3.03297079
H        2.68747856      -0.75807162       3.74684051
H        1.19962837       0.65568040       2.36575079
H        0.71987885      -2.58082458      -0.42520129
H        3.03123743      -5.66853589      -3.09328379
H        3.43307041      -7.28295816      -4.89825826
H        3.60579679      -9.70201226      -4.40631271
H        2.96823102      -8.89920197      -0.22832973
C        3.39380770     -10.84942803      -1.99434560
C        3.47439798     -12.02790829      -1.75118827
Br       3.60470565     -13.93341120      -1.35802344
