185
Properties=species:S:1:pos:R:3 pbc="F F F"
C        0.00000000       0.00000000       0.00000000
C        0.88189660       0.88189660      -0.88189660
C        0.29579120       1.80323926      -1.74369854
C        1.10822346       2.61122251      -2.54586473
C        2.50891260       2.50634612      -2.49799893
C        3.07801000       1.57123470      -1.62136908
C        2.26775298       0.76103743      -0.81558561
C        3.34330913       3.37970636      -3.33410401
C        4.75026334       3.37438777      -3.50282918
C        5.05870019       4.41145227      -4.37214570
C        6.37196505       4.81246644      -4.87998091
C        6.58151612       5.10541680      -6.23516822
C        7.84991467       5.46774004      -6.70111428
C        8.92612395       5.50915256      -5.81883295
C        8.74677416       5.19059128      -4.47606026
C        7.47355935       4.84854791      -4.01056732
N        3.84480598       5.02096778      -4.61301733
N        2.80151761       4.34148297      -4.08945073
C        3.55779430       6.23677898      -5.37159796
C        2.91843656       7.31882934      -4.52382737
C        3.75737986       8.14183799      -3.74769814
C        3.22868498       9.15443637      -2.94817830
C        1.85400226       9.35694599      -2.90464140
C        1.00727889       8.54780390      -3.66066584
C        1.52121615       7.52450165      -4.47489927
C        0.55770492       6.68521727      -5.27044064
H       -0.78361451       1.90849975      -1.80030387
H        0.63643615       3.33353428      -3.21063836
H        4.15549584       1.46139202      -1.54085081
H        2.72949845       0.04619515      -0.14002684
H        5.46226952       2.69269099      -3.06249656
H        5.76575370       5.03684424      -6.95120883
H        7.98684423       5.70410702      -7.75441354
H        9.58415375       5.20259302      -3.78566373
H        7.35075725       4.60141006      -2.95632528
H        2.92908233       5.94372322      -6.21855589
H        4.48482723       6.63006030      -5.79424167
H        4.83547013       7.99533442      -3.76123857
H        3.88973593       9.78201965      -2.35558056
H        1.43788801      10.14116347      -2.27842185
H       -0.06556773       8.71797336      -3.60615998
H        0.65367428       5.62779688      -5.01345434
H        0.73249188       6.82064376      -6.34246715
H       -0.48192134       6.96886538      -5.07001411
C       10.23387609       5.87155238      -6.30054937
C       11.32911851       6.17506223      -6.70398688
Br      13.10003286       6.66581199      -7.35631119
C       -0.88189660      -0.88189660      -0.88189660
C       -2.23607811      -0.59244634      -1.01420455
C       -3.03809733      -1.40079102      -1.82642235
C       -2.49900211      -2.50387923      -2.51037631
C       -1.13125369      -2.77645984      -2.36290025
C       -0.32452718      -1.96858157      -1.55126727
C       -3.35561877      -3.32680020      -3.37470054
C       -3.03727477      -4.51921591      -4.07098962
C       -4.17487390      -4.89655627      -4.77086799
C       -4.36931012      -6.06823863      -5.62686365
C       -5.51949177      -6.86531104      -5.53729832
C       -5.67469985      -7.99175890      -6.35231024
C       -4.66466141      -8.34733433      -7.24211372
C       -3.50085670      -7.58867932      -7.32388968
C       -3.35840437      -6.45225839      -6.52201182
N       -5.07598100      -3.88251044      -4.52029965
N       -4.63412758      -3.00208770      -3.59623604
C       -6.41215203      -3.67798987      -5.07602935
C       -6.53245716      -2.37947998      -5.84915612
C       -6.09981344      -2.35783574      -7.18926680
C       -6.18543397      -1.19381726      -7.95204843
C       -6.69710826      -0.03102698      -7.38745440
C       -7.12393579      -0.03140118      -6.06041166
C       -7.04877797      -1.19516901      -5.27667009
C       -7.52749451      -1.13497719      -3.85089113
H       -2.68003858       0.25482427      -0.49997481
H       -4.09516212      -1.15843367      -1.92701299
H       -0.66674700      -3.61086930      -2.88012237
H        0.73377493      -2.19492969      -1.45456568
H       -2.10110523      -5.05681388      -4.05953796
H       -6.30213858      -6.63294957      -4.81871862
H       -6.58156130      -8.58822582      -6.27557766
H       -2.70106864      -7.86968184      -8.00166002
H       -2.44053976      -5.86975971      -6.59819312
H       -7.11737512      -3.73346914      -4.24051718
H       -6.65865097      -4.50442244      -5.74605579
H       -5.68902221      -3.25479094      -7.64822997
H       -5.84814724      -1.19357441      -8.98561450
H       -6.76004406       0.87943271      -7.97686198
H       -7.51370753       0.89093644      -5.63579452
H       -6.72923959      -1.40857101      -3.15711490
H       -8.38285925      -1.80318886      -3.70955469
H       -7.85340898      -0.12431906      -3.57923011
C       -4.81972823      -9.51298647      -8.07326315
C       -4.94959668     -10.48922013      -8.76935080
Br      -5.15958299     -12.06770740      -9.89486566
C       -0.88189660       0.88189660       0.88189660
C       -1.77401878       0.29519165       1.77351857
C       -2.57609796       1.10750277       2.58170997
C       -2.49795079       2.50874034       2.50656651
C       -1.59106623       3.07841691       1.60113064
C       -0.78528215       2.26825043       0.79084344
C       -3.33485430       3.34238885       3.37987635
C       -3.47512479       4.75233028       3.40002523
C       -4.35915395       5.05762712       4.42551709
C       -4.84861130       6.37270668       4.84309442
C       -6.20503669       6.60407829       5.11298615
C       -6.65273033       7.87422849       5.49181018
C       -5.75003323       8.93106638       5.57300985
C       -4.40488510       8.73065292       5.27788768
C       -3.95815713       7.45529018       4.91922728
N       -4.63682327       3.83692405       5.00504378
N       -4.12050386       2.79698353       4.31496393
C       -5.42579519       3.54115440       6.19922165
C       -4.61341609       2.86292646       7.28475071
C       -3.83762604       3.66906536       8.14022459
C       -3.06982934       3.10384006       9.15763026
C       -3.05809126       1.72476136       9.33273702
C       -3.81422557       0.91015458       8.49136848
C       -4.59680686       1.46114525       7.46266497
C       -5.39417072       0.53121502       6.58797709
H       -1.85445281      -0.78472345       1.85545975
H       -3.26489353       0.63502777       3.28068750
H       -1.48667374       4.15601457       1.51505036
H       -0.08606090       2.73031642       0.09934312
H       -3.00668292       5.46871205       2.74206210
H       -6.93577028       5.80471616       5.01332032
H       -7.70769114       8.02795408       5.70971957
H       -3.69819032       9.55328618       5.32093400
H       -2.90174910       7.31588334       4.69086016
H       -6.27902881       2.93596218       5.87637045
H       -5.83769980       4.46856945       6.60285995
H       -3.82648940       4.74993311       8.01562061
H       -2.47706214       3.73985166       9.81042235
H       -2.45657679       1.28021445      10.12068209
H       -3.78479367      -0.16678749       8.64055943
H       -5.11367428       0.64312543       5.53812579
H       -6.46501997       0.72519514       6.70538768
H       -5.22053809      -0.51779380       6.85421386
C       -6.21270139      10.24087584       5.95240062
C       -6.60018597      11.33784126       6.27014038
Br      -7.22671576      13.11154158       6.78389871
C        0.88189660      -0.88189660       0.88189660
C        1.97409254      -1.54123932       0.32739715
C        2.78076282      -2.34410060       1.14044729
C        2.50491511      -2.49848116       2.50986138
C        1.39919189      -1.82389064       3.04753126
C        0.58959735      -1.01802725       2.23675142
C        3.37787161      -3.32993462       3.34931326
C        3.22844623      -3.68641118       4.71262289
C        4.32933925      -4.46013100       5.05282791
C        4.63651239      -5.08933449       6.33856551
C        5.08270746      -6.41597463       6.42341905
C        5.35149091      -7.00250768       7.66477041
C        5.14545303      -6.27490820       8.83374823
C        4.67215534      -4.96759545       8.77367491
C        4.42395431      -4.37845159       7.53026868
N        5.10548993      -4.46093672       3.91236444
N        4.49021854      -3.88573697       2.85649581
C        6.43793772      -5.02415643       3.70407710
C        7.46383958      -3.97549988       3.32175381
C        8.06915532      -3.22755394       4.35020673
C        9.02011491      -2.24953833       4.06164642
C        9.37658557      -1.99716648       2.74183760
C        8.78312079      -2.72263947       1.70998837
C        7.82536844      -3.71440785       1.98084078
C        7.22144400      -4.46657104       0.82534779
H        2.21337090      -1.43876728      -0.72694907
H        3.63701312      -2.84866851       0.69492716
H        1.15240672      -1.90312371       4.10220823
H       -0.25956885      -0.50060824       2.67468105
H        2.41393113      -3.43022803       5.37329791
H        5.20868631      -7.01840977       5.52671068
H        5.70990222      -8.02908883       7.70637373
H        4.49142194      -4.40001737       9.68097119
H        4.05314375      -3.35412766       7.50122118
H        6.33855777      -5.80725922       2.94554445
H        6.77184138      -5.51835134       4.61893648
H        7.79892748      -3.40374659       5.38936905
H        9.47906447      -1.68132077       4.86695090
H       10.11290894      -1.23192444       2.51263994
H        9.07047875      -2.50404749       0.68403937
H        6.13516906      -4.35220290       0.80755354
H        7.47859277      -5.52866196       0.88834806
H        7.59679917      -4.09545046      -0.13529149
C        5.41176993      -6.88225651      10.11195140
C        5.63481034      -7.39091072      11.18244655
Br       5.99544782      -8.21336156      12.91334667
