177
Properties=species:S:1:pos:R:3 pbc="F F F"
C        0.00000000       0.00000000       0.00000000
C        0.88090779       0.88090779      -0.88090779
C        1.38663838       2.07486040      -0.38557088
C        2.19955593       2.87328165      -1.20028180
C        2.52466580       2.49641008      -2.52027947
C        1.99479760       1.28780092      -2.98996460
C        1.17926255       0.48371362      -2.18085553
C        3.40279254       3.37307232      -3.33111020
N        3.90124894       4.48223315      -2.77235602
N        4.64559819       5.09686074      -3.71874577
C        5.14847651       6.41650534      -3.31317588
C        6.14013408       7.13734943      -4.18420541
C        7.51768419       7.05285942      -3.92081735
C        8.43628304       7.73307833      -4.72246186
C        7.98897244       8.51306199      -5.78662733
C        6.62454126       8.62566308      -6.04638348
C        5.70362449       7.94596136      -5.24389668
C        4.68610434       4.38054494      -4.89359032
C        5.42837393       4.72498466      -6.10736574
C        6.82731732       4.67413874      -6.12648338
C        7.53361321       5.00697371      -7.28518789
C        6.83984149       5.33615131      -8.44772499
Br       7.79371187       5.79317201     -10.01255150
C        5.44588312       5.32947196      -8.46137784
C        4.74434282       5.03183014      -7.29090637
C        3.86374062       3.27062259      -4.68533350
C        3.56495250       2.20859480      -5.68519648
H        1.16384792       2.39880074       0.62667273
H        2.58537210       3.80319070      -0.78747771
H        2.19605679       0.92370839      -3.98869871
H        0.78816164      -0.44955330      -2.57705733
H        5.58894347       6.27486656      -2.31620061
H        4.26039834       7.04661301      -3.17336801
H        7.88529388       6.44703257      -3.09489450
H        9.50093214       7.65001215      -4.52096757
H        8.70477357       9.03484132      -6.41850386
H        6.27684636       9.23309051      -6.87334666
H        4.64161788       8.04144694      -5.46201913
H        7.37929775       4.40677033      -5.23007452
H        8.62015016       5.01695156      -7.26553588
H        4.89901345       5.55644789      -9.37386229
H        3.65527806       5.02965835      -7.31040111
H        3.92996113       1.23850666      -5.33604318
H        4.04315826       2.39259529      -6.65220125
H        2.48792849       2.15081973      -5.87053738
C       -0.88090779      -0.88090779      -0.88090779
C       -1.27760069      -0.43528535      -2.13418362
C       -2.08111695      -1.25428267      -2.93771974
C       -2.50156194      -2.53081340      -2.50898000
C       -2.08667326      -2.94807495      -1.23781490
C       -1.28331753      -2.13341286      -0.42710130
C       -3.33782423      -3.36073174      -3.40841908
N       -3.63711340      -2.89278556      -4.62593915
N       -4.41011044      -3.82611368      -5.22498058
C       -4.95311785      -3.40224740      -6.52279248
C       -5.67568774      -4.39596433      -7.39003684
C       -5.00040959      -5.06853953      -8.42241185
C       -5.67561535      -5.98115629      -9.23505159
C       -7.03278529      -6.22258978      -9.03328670
C       -7.72187299      -5.54606780      -8.02864703
C       -7.04729538      -4.63126551      -7.21492164
C       -4.59082790      -4.93703051      -4.43238119
C       -5.33114742      -6.15169504      -4.77788187
C       -4.84445160      -7.03054802      -5.75293982
C       -5.55484984      -8.18738212      -6.08354286
C       -6.72679515      -8.49926716      -5.39765548
Br      -7.69162588     -10.05909642      -5.84871308
C       -7.19009481      -7.66612473      -4.38051337
C       -6.49645662      -6.49205039      -4.07857232
C       -3.93276596      -4.65386220      -3.23306856
C       -3.86917638      -5.54648913      -2.04307827
H       -0.97170963       0.53906950      -2.50333580
H       -2.37636542      -0.88277188      -3.91690321
H       -2.36242402      -3.91284550      -0.83319437
H       -0.97731613      -2.49081453       0.55246499
H       -4.10081589      -2.99469513      -7.08449962
H       -5.61722411      -2.55473902      -6.30841622
H       -3.94000011      -4.89370546      -8.59351537
H       -5.14211975      -6.50831756     -10.02147456
H       -7.55731586      -6.94167391      -9.65912899
H       -8.77750164      -5.73320187      -7.87258002
H       -7.59898767      -4.11364066      -6.43245564
H       -3.92536991      -6.80485289      -6.28591980
H       -5.19171470      -8.82869130      -6.88223161
H       -8.08801224      -7.91987526      -3.82143614
H       -6.86597831      -5.84651955      -3.28283966
H       -2.83515485      -5.83520741      -1.83414870
H       -4.43089457      -6.47541737      -2.18164286
H       -4.29505515      -5.04659893      -1.16763153
C       -0.88090779       0.88090779       0.88090779
C       -1.25084006       0.44909429       2.14713531
C       -2.05460181       1.26808808       2.95042948
C       -2.50191043       2.53092392       2.50852100
C       -2.11361620       2.93438392       1.22456299
C       -1.31019595       2.11960782       0.41402793
C       -3.33708463       3.36184689       3.40804355
N       -3.60984173       2.90866978       4.63732660
N       -4.38810303       3.83919624       5.23390544
C       -4.90396288       3.42755388       6.54664098
C       -5.62857667       4.42350049       7.40961175
C       -4.94800984       5.12285338       8.42049774
C       -5.62483704       6.03759325       9.22939294
C       -6.98865667       6.25455261       9.04545248
C       -7.68253349       5.55147844       8.06257589
C       -7.00631655       4.63452655       7.25263943
C       -4.59880083       4.93442895       4.42700983
C       -5.35282199       6.14270724       4.76519510
C       -4.86496153       7.04442941       5.71854850
C       -5.58838349       8.19512273       6.04226859
C       -6.77570922       8.47772463       5.37028394
Br      -7.75801628      10.02924910       5.81217001
C       -7.24156278       7.62139916       4.37377097
C       -6.53417504       6.45366299       4.07924129
C       -3.95515009       4.64257420       3.22197243
C       -3.92434643       5.51708006       2.01731729
H       -0.92378583      -0.51437707       2.52656717
H       -2.32857520       0.90760154       3.93986378
H       -2.41093976       3.88818128       0.80934285
H       -1.02525427       2.46615072      -0.57573931
H       -4.03662304       3.04234129       7.10104630
H       -5.55779894       2.56647310       6.35610732
H       -3.88241362       4.96735211       8.57745521
H       -5.08755277       6.58544747       9.99891163
H       -7.51469278       6.97519697       9.66822901
H       -8.74331036       5.71959011       7.92038306
H       -7.56188256       4.09598480       6.48721659
H       -3.93419484       6.84161641       6.24033136
H       -5.22303801       8.85462877       6.82497083
H       -8.15202377       7.85217702       3.82512285
H       -6.90579226       5.78988346       3.29966180
H       -2.89843079       5.81856994       1.78751024
H       -4.49850811       6.43919880       2.15024789
H       -4.35586488       4.99675863       1.15666210
C        0.88090779      -0.88090779       0.88090779
C        1.30439129      -2.12058393       0.42209443
C        2.11808344      -2.91895448       1.23608144
C        2.52578433      -2.49668402       2.51888700
C        2.07763965      -1.24240062       2.95252284
C        1.26188223      -0.43798248       2.14396698
C        3.40063933      -3.37653232       3.32980340
N        3.81772738      -4.53425428       2.80385645
N        4.57824206      -5.13963211       3.74333053
C        4.99739228      -6.50031751       3.38044795
C        5.99586864      -7.22750377       4.23831651
C        7.36109632      -7.22405906       3.90620559
C        8.28516247      -7.91037007       4.69629069
C        7.85484877      -8.61598352       5.81782947
C        6.50119939      -8.64829622       6.14709221
C        5.57475450      -7.96242594       5.35630210
C        4.71085597      -4.37145148       4.87793216
C        5.49534849      -4.69452867       6.07084717
C        6.89435330      -4.71235048       6.02123565
C        7.64077155      -5.02466873       7.16033454
C        6.99078040      -5.26364894       8.36928845
Br       7.99847981      -5.69294516       9.90801042
C        5.60109633      -5.18713491       8.44850167
C        4.85717392      -4.91071959       7.29918583
C        3.93257975      -3.23316308       4.65395388
C        3.73436040      -2.11151476       5.61286862
H        1.01655110      -2.48057298      -0.56114815
H        2.43851953      -3.88535199       0.85216900
H        2.34522746      -0.84192383       3.92131259
H        0.93550842       0.53124219       2.51139944
H        5.39402509      -6.42802926       2.35795628
H        4.07466370      -7.09146446       3.31425120
H        7.71548815      -6.67696856       3.03476424
H        9.34123099      -7.88988437       4.44079652
H        8.57565919      -9.14218849       6.44027107
H        6.16665143      -9.19792303       7.01870907
H        4.52156044      -7.99464662       5.62887690
H        7.41317599      -4.51540866       5.08755795
H        8.72330387      -5.08949490       7.08983883
H        5.09008075      -5.34327279       9.39597011
H        3.77174276      -4.85356304       7.37003173
H        4.12705400      -1.17834337       5.19911360
H        4.25074694      -2.27309100       6.56411686
H        2.67180492      -1.99164025       5.84584044
