198
Properties=species:S:1:pos:R:3 pbc="F F F"
C        1.79081182       1.79081182      -1.79081182
C        2.29654241       2.98476442      -1.29547490
C        3.10945995       3.78318567      -2.11018582
C        3.43456982       3.40631410      -3.43018349
C        2.90470162       2.19770494      -3.89986862
C        2.08916657       1.39361764      -3.09075955
C        4.31269656       4.28297635      -4.24101422
N        4.81115297       5.39213717      -3.68226004
N        5.55550221       6.00676476      -4.62864980
C        6.05838054       7.32640936      -4.22307991
C        7.05003811       8.04725345      -5.09410943
C        8.42758822       7.96276345      -4.83072137
C        9.34618707       8.64298236      -5.63236588
C        8.89887646       9.42296602      -6.69653135
C        7.53444528       9.53556710      -6.95628751
C        6.61352851       8.85586538      -6.15380071
C        5.59600837       5.29044896      -5.80349435
C        6.33827796       5.63488869      -7.01726976
C        7.73722134       5.58404277      -7.03638740
C        8.44351723       5.91687774      -8.19509192
C        7.74974551       6.24605533      -9.35762901
Br       8.70361589       6.70307604     -10.92245553
C        6.35578714       6.23937598      -9.37128186
C        5.65424684       5.94173417      -8.20081039
C        4.77364465       4.18052662      -5.59523753
C        4.47485653       3.11849882      -6.59510050
H        2.07375194       3.30870476      -0.28323129
H        3.49527613       4.71309473      -1.69738173
H        3.10596081       1.83361241      -4.89860273
H        1.69806566       0.46035073      -3.48696136
H        6.49884750       7.18477058      -3.22610463
H        5.17030236       7.95651703      -4.08327203
H        8.79519790       7.35693659      -4.00479852
H       10.41083617       8.55991618      -5.43087159
H        9.61467759       9.94474535      -7.32840788
H        7.18675039      10.14299454      -7.78325068
H        5.55152191       8.95135097      -6.37192316
H        8.28920178       5.31667435      -6.13997855
H        9.53005419       5.92685558      -8.17543991
H        5.80891748       6.46635192     -10.28376632
H        4.56518208       5.93956238      -8.22030514
H        4.83986516       2.14841068      -6.24594720
H        4.95306228       3.30249931      -7.56210527
H        3.39783252       3.06072375      -6.78044141
C       -1.79081182      -1.79081182      -1.79081182
C       -2.19729004      -1.34029790      -3.03919380
C       -3.00071751      -2.15929459      -3.84281935
C       -3.41134082      -3.44067386      -3.41905275
C       -2.98672697      -3.86282546      -2.15272276
C       -2.18339367      -3.04820600      -1.34194409
C       -4.24800447      -4.27022958      -4.31845308
N       -4.55700387      -3.79703537      -5.53151094
N       -5.32807530      -4.73135722      -6.13148425
C       -5.88099549      -4.30318811      -7.42368621
C       -6.60284384      -5.29606517      -8.29249199
C       -5.92968869      -5.95878846      -9.33259589
C       -6.60432483      -6.87060806     -10.14660241
C       -7.95889773      -7.12103164      -9.93844446
C       -8.64604484      -6.45428218      -8.92597288
C       -7.97204311      -5.54028700      -8.11086450
C       -5.49782842      -5.84783302      -5.34429023
C       -6.23314317      -7.06474929      -5.69254394
C       -5.74704835      -7.93516200      -6.67544115
C       -6.45268889      -9.09416248      -7.00863552
C       -7.61884228      -9.41674573      -6.31784185
Br      -8.57728820     -10.97950590      -6.77235335
C       -8.08103610      -8.59214861      -5.29326027
C       -7.39241963      -7.41584066      -4.98853111
C       -4.83448704      -5.56776072      -4.14716103
C       -4.75889946      -6.46682493      -2.96273146
H       -1.89913724      -0.36208839      -3.40446237
H       -3.30374581      -1.78387803      -4.81812876
H       -3.25459063      -4.83148058      -1.75210475
H       -1.86969161      -3.40945400      -0.36623213
H       -5.03430697      -3.88750032      -7.98791542
H       -6.54870874      -3.46077507      -7.20060762
H       -4.87130682      -5.77685233      -9.50877386
H       -6.07236198      -7.39015374     -10.93910822
H       -8.48289617      -7.83952747     -10.56540719
H       -9.69966226      -6.64840392      -8.76492942
H       -8.52217013      -5.03035979      -7.32226611
H       -4.83237197      -7.70110456      -7.21237814
H       -6.09049613      -9.72876589      -7.81308765
H       -8.97423706      -8.85428815      -4.73051050
H       -7.76104005      -6.77703564      -4.18697390
H       -3.72204727      -6.75076077      -2.76141500
H       -5.31606449      -7.39817120      -3.10343118
H       -5.18257820      -5.97443907      -2.08198041
C       -1.79081182       1.79081182       1.79081182
C       -2.17465809       1.35173950       3.05038414
C       -2.97829172       2.17073608       3.85380364
C       -3.41163212       3.44077206       3.41866324
C       -3.00951059       3.85148640       2.14127819
C       -2.20612447       3.03676910       1.33065019
C       -4.24737032       4.27117031       4.31814650
N       -4.53391835       3.81023789       5.54139393
N       -5.30944287       4.74223643       6.13923747
C       -5.83942493       4.32415484       7.44429004
C       -6.56296309       5.31895442       8.30948348
C       -5.88505150       6.00441460       9.33160694
C       -6.56102400       6.91806099      10.14245031
C       -7.92146892       7.14772508       9.94917983
C       -8.61295037       6.45842484       8.95492469
C       -7.93759757       5.54258008       8.14301695
C       -5.50455343       5.84571204       5.33968620
C       -6.25144783       7.05735254       5.68163604
C       -5.76410535       7.94722297       6.64632319
C       -6.48075343       9.10114868       6.97358478
C       -7.66016616       9.39898089       6.29428280
Br      -8.63338372      10.95487631       6.74088743
C       -8.12477782       8.55467521       5.28699195
C       -7.42454204       7.38360155       4.98864781
C       -4.85341461       5.55841389       4.13758030
C       -4.80556886       6.44243611       2.94045088
H       -1.85860765       0.38254683       3.42453352
H       -3.26332676       1.80445488       4.83797095
H       -3.29561689       4.81105314       1.73150592
H       -1.91023290       3.38902010       0.34612475
H       -4.97984660       3.92731026       8.00256585
H       -6.49867512       3.47006472       7.24135159
H       -4.82208659       5.83887777       9.49596865
H       -6.02563594       7.45518054      10.92080746
H       -8.44671305       7.86756709      10.57355069
H       -9.67111482       6.63641111       8.80546967
H       -8.49122386       5.01488935       7.36868282
H       -4.83934792       7.73251016       7.17399659
H       -6.11649013       9.75121932       7.76464023
H       -9.02878176       8.79740316       4.73285079
H       -7.79513722       6.72928381       4.20062857
H       -3.77537194       6.73734167       2.72150943
H       -5.37326216       7.36813137       3.07627333
H       -5.23422389       5.93272106       2.07205273
C        1.79081182      -1.79081182       1.79081182
C        2.23690191      -3.01851882       1.32136101
C        3.05038482      -3.81689604       2.13555059
C        3.43538957      -3.40650077       3.42917709
C        2.96477987      -2.16417780       3.87331751
C        2.14907918      -1.35985416       3.06461042
C        4.31115706      -4.28549128       4.24003879
N        4.75064230      -5.43044348       3.70446439
N        5.50671118      -6.03824721       4.64595838
C        5.94882186      -7.38828498       4.27076297
C        6.94552190      -8.11363492       5.13224416
C        8.31485345      -8.08768526       4.81853432
C        9.23750509      -8.77224282       5.61178740
C        8.80189229      -9.49845268       6.71802886
C        7.44456154      -9.55307393       7.02866443
C        6.51954681      -8.86897903       6.23466876
C        5.61400181      -5.28365480       5.79229507
C        6.38690924      -5.61228743       6.99123973
C        7.78656100      -5.61093987       6.96015064
C        8.52196842      -5.92859773       8.10492073
C        7.85930731      -6.19233376       9.30178879
Br       8.85223243      -6.62884922      10.84806580
C        6.46779658      -6.13527297       9.36337543
C        5.73550084      -5.85334172       8.20794884
C        4.82357035      -4.15285888       5.57297956
C        4.59767262      -3.04688204       6.54390119
H        1.96694030      -3.36907331       0.32967439
H        3.38879277      -4.77373943       1.74322040
H        3.21414121      -1.77321688       4.85081787
H        1.80491461      -0.40004178       3.44042136
H        6.35793765      -7.29706089       3.25472417
H        5.03505477      -7.99064273       4.18439393
H        8.67337490      -7.52432607       3.95923204
H       10.29649067      -8.73437052       5.37076276
H        9.52139552     -10.02337382       7.34306148
H        7.10591211     -10.11870890       7.88837459
H        5.46336657      -8.91877513       6.49265434
H        8.31499987      -5.39465866       6.03619615
H        9.60610993      -5.97815154       8.04808821
H        5.94643421      -6.31083904      10.30176247
H        4.64855917      -5.81149921       8.26499122
H        4.98326209      -2.10313774       6.14782320
H        5.10355313      -3.21434916       7.49976458
H        3.53061798      -2.94420296       6.76417675
C       -0.00445707       0.01189536      -1.78238275
H       -0.66409135       0.67374010      -2.43557963
H        0.65740317      -0.63156657      -2.45157240
C       -0.90989263      -0.90692880      -0.91072765
C        0.90977584       0.90977584      -0.90977584
C       -0.00465871       1.77757030       0.00794375
H       -0.66225468       2.44313916      -0.64384735
H        0.64322798       2.43503045       0.67728295
C       -1.78241447       0.00034974      -0.00472694
H       -2.45427497      -0.65498947       0.64260836
H       -2.43311707       0.67328779      -0.65473579
C       -0.91132561       0.90220522       0.91563759
C       -0.01476271      -0.02253852       1.78660255
H       -0.67934791      -0.69751639       2.42135241
H        0.63392994       0.61504881       2.47327442
C        0.01484550      -1.77751727      -0.01636693
H        0.67870853      -2.42144646      -0.68295456
H       -0.62264859      -2.45592969       0.64226336
C        1.78714474       0.01002794       0.00389507
H        2.44202412       0.67113390       0.66197326
H        2.45385902      -0.65136977      -0.64189061
C        0.91606151      -0.90478549       0.90901405
