185
Properties=species:S:1:pos:R:3 pbc="F F F"
C        0.00000000       0.00000000       0.00000000
C        0.88189344       0.88189344      -0.88189344
C        0.34548457       2.02038918      -1.47314224
C        1.16465304       2.83599921      -2.24992386
C        2.51338785       2.50693913      -2.43189926
C        3.05815432       1.34127267      -1.87939475
C        2.22069123       0.53808000      -1.08587320
C        4.46133343       0.93952180      -2.07654275
C        5.29514037       0.26956067      -1.18986089
C        6.52028787       0.03670072      -1.85925485
N        6.47199018       0.55411353      -3.09035683
N        5.22456188       1.05665973      -3.22405927
C        4.91096230       1.67491154      -4.51501640
C        3.73338300       1.08562276      -5.26399543
C        3.40812465      -0.27837728      -5.14176912
C        2.33613395      -0.82935370      -5.84362230
C        1.58434429      -0.03433242      -6.70013353
C        1.91274368       1.30899678      -6.86725428
C        2.99389020       1.87820471      -6.17418714
C        3.31073771       3.33162591      -6.41028740
C        7.71662598      -0.65630908      -1.37766018
C        7.64106083      -1.60855287      -0.35004504
C        8.78863761      -2.28301781       0.08023730
C       10.02320455      -2.01084726      -0.50805517
C       10.10560983      -1.06479794      -1.52742105
C        8.96467914      -0.39274097      -1.96370764
H       -0.69951923       2.28441159      -1.32893279
H        0.75692066       3.72886291      -2.71158666
H        3.12215292       3.19559023      -3.00890179
H        2.60774890      -0.36539982      -0.62599972
H        5.04360591      -0.01674971      -0.17835611
H        5.79953990       1.57548690      -5.15239152
H        4.78578636       2.73990593      -4.30237031
H        3.98742490      -0.93276125      -4.49194317
H        2.09247529      -1.88114487      -5.72243574
H        0.74912805      -0.46212603      -7.24722801
H        1.32163645       1.91141292      -7.55506352
H        2.97665698       3.93295456      -5.55913064
H        2.81279906       3.70832119      -7.30960664
H        4.38489269       3.47532293      -6.56133065
H        6.68918011      -1.85367872       0.11321846
H        8.71693344      -3.02671086       0.87077403
H       10.90903540      -2.54072233      -0.17126406
H        9.03992807       0.33889826      -2.76620725
C       11.37903347      -0.78250189      -2.13758593
C       12.44552577      -0.54607894      -2.64859902
Br      14.16995361      -0.16380304      -3.47486396
C       -0.88189344      -0.88189344      -0.88189344
C       -0.29823228      -1.68683659      -1.85394712
C       -1.10681844      -2.51147581      -2.63228187
C       -2.49296174      -2.52427454      -2.43498995
C       -3.10048964      -1.68793700      -1.49039512
C       -2.26763422      -0.87357759      -0.70343262
C       -4.55703840      -1.64372536      -1.27663422
C       -5.24412961      -1.42055258      -0.08987973
C       -6.62417301      -1.38944338      -0.40262705
N       -6.79993622      -1.60724942      -1.70927490
N       -5.55734619      -1.71907126      -2.22886343
C       -5.47848661      -1.94843718      -3.67396646
C       -4.69314396      -0.92356013      -4.46629710
C       -4.63824145       0.42132693      -4.05460196
C       -3.93169069       1.37214402      -4.79085589
C       -3.28769281       1.00311173      -5.96556432
C       -3.36184412      -0.31382379      -6.41332683
C       -4.07556364      -1.28241325      -5.68830515
C       -4.13436600      -2.68550023      -6.23278479
C       -7.76538695      -1.15714296       0.48455282
C       -7.61790490      -0.45476570       1.69011761
C       -8.72308620      -0.21621321       2.51391691
C       -9.98525166      -0.67969382       2.14453301
C      -10.13825503      -1.37978602       0.94980809
C       -9.04143215      -1.61659887       0.12238521
H        0.77850058      -1.68611904      -2.00620669
H       -0.66072340      -3.14663041      -3.39001643
H       -3.07662109      -3.21481549      -3.03520835
H       -2.69696253      -0.22253887       0.05115260
H       -4.79682182      -1.29441565       0.88602515
H       -6.50552478      -1.95963643      -4.06225711
H       -5.08231833      -2.96133029      -3.78441397
H       -5.14588873       0.74710852      -3.14782662
H       -3.88888760       2.40168241      -4.44656097
H       -2.73696118       1.74257412      -6.53984297
H       -2.86404608      -0.57965039      -7.34441642
H       -3.46753901      -3.33915943      -5.66204374
H       -3.82769684      -2.71981986      -7.28321019
H       -5.15552360      -3.07621950      -6.18980317
H       -6.64949986      -0.06623202       1.99344895
H       -8.59917616       0.33822698       3.44150063
H      -10.83903840      -0.48781939       2.78728067
H       -9.17438110      -2.15815514      -0.81249734
C      -11.44071802      -1.85862294       0.56522344
C      -12.53153077      -2.25964887       0.24313380
Br     -14.29528274      -2.90807388      -0.27765791
C       -0.88189344       0.88189344       0.88189344
C       -2.00818828       1.49104172       0.33978599
C       -2.82425011       2.26778990       1.15853610
C       -2.50780767       2.43183919       2.51257937
C       -1.35402260       1.86104928       3.06374987
C       -0.55035805       1.06789158       2.22639480
C       -0.96532217       2.03890718       4.47316863
C       -0.31385563       1.13623592       5.30447038
C       -0.08708128       1.78999953       6.53916264
N       -0.59080438       3.02704417       6.49861199
N       -1.07844173       3.17942509       5.24741407
C       -1.67949913       4.48022877       4.94116235
C       -1.06962619       5.23531932       3.77805569
C        0.29641694       5.10188866       3.46604477
C        0.86634348       5.80914671       2.40759932
C        0.08862699       6.68212351       1.65664888
C       -1.25630338       6.86018751       1.97250385
C       -1.84446433       6.16181323       3.04000448
C       -3.29861514       6.41015690       3.34387898
C        0.58784292       1.28826018       7.73755983
C        1.52984744       0.25131756       7.66108287
C        2.18730022      -0.19839643       8.81107916
C        1.90813689       0.37961083      10.04893852
C        0.97216467       1.40816561      10.13223200
C        0.31711197       1.86378648       8.98897131
H       -2.26246768       1.36081944      -0.70946197
H       -3.70770616       2.74335272       0.74631136
H       -3.19678787       3.00970526       3.12015181
H        0.34395451       0.59422378       2.61807953
H       -0.03564248       0.12444394       5.04512590
H       -1.58286291       5.10699777       5.83755764
H       -2.74528857       4.28040376       4.80237026
H        0.93757000       4.43892418       4.04525265
H        1.91934626       5.67924732       2.17386509
H        0.53118810       7.23344504       0.83197309
H       -1.84496298       7.56069728       1.38245263
H       -3.90534311       5.56912821       2.99427086
H       -3.66033018       7.31873055       2.85166616
H       -3.45224943       6.55129048       4.41800637
H        1.78025780      -0.20439440       6.70693513
H        2.92326109      -0.99608409       8.73879372
H        2.42482946       0.02772115      10.93668544
H       -0.40670720       2.67326813       9.06505824
C        0.68269167       2.00773798      11.40907121
C        0.44025804       2.50987984      12.47842404
Br       0.04826336       3.32180075      14.20747714
C        0.88189344      -0.88189344       0.88189344
C        2.10400380      -0.39872339       1.33628880
C        2.88738425      -1.19737075       2.16582111
C        2.44478573      -2.47381374       2.53362678
C        1.23725661      -2.99192556       2.04963958
C        0.45250034      -2.16620123       1.22594286
C        0.75274819      -4.34241156       2.38223823
C       -0.55977143      -4.76709080       2.54724256
C       -0.52408933      -6.16322350       2.77710927
N        0.74171274      -6.59143772       2.78331008
N        1.49426580      -5.50319296       2.50782213
C        2.94221878      -5.71787794       2.44079353
C        3.60894512      -5.34002440       1.13403167
C        2.91632796      -5.44224671      -0.08705819
C        3.53191374      -5.11302560      -1.29453679
C        4.85849995      -4.69969219      -1.30804675
C        5.57557103      -4.62934259      -0.11591888
C        4.97347615      -4.96470110       1.10810480
C        5.80561599      -4.88596842       2.36106661
C       -1.63673687      -7.09237127       2.98234270
C       -2.92272984      -6.80430246       2.50098038
C       -3.96958464      -7.71477240       2.68019475
C       -3.74411634      -8.91960324       3.34492556
C       -2.47002880      -9.21087593       3.82738581
C       -1.42166273      -8.30954752       3.64776102
H        2.44898058       0.59473541       1.05957998
H        3.84016471      -0.82778837       2.52941716
H        3.06886079      -3.04146217       3.21632197
H       -0.49781739      -2.52343643       0.84272975
H       -1.43815149      -4.13857571       2.50478810
H        3.12527196      -6.78631388       2.61583249
H        3.35429803      -5.17698005       3.29678452
H        1.88094519      -5.77895867      -0.11329703
H        2.97401239      -5.18383482      -2.22408105
H        5.33908785      -4.44285759      -2.24771540
H        6.61855795      -4.31875413      -0.14919920
H        5.53446302      -3.99636410       2.93791507
H        6.87388573      -4.82836675       2.12847441
H        5.66509219      -5.77915526       2.97729883
H       -3.12232807      -5.88140994       1.96320106
H       -4.96034211      -7.48575820       2.29403246
H       -4.56064374      -9.62291778       3.47730309
H       -0.42857375      -8.55126586       4.02234147
C       -2.23397824     -10.45485429       4.51324147
C       -2.03628590     -11.49668617       5.08764558
Br      -1.71663410     -13.18124019       6.01640844
