198
Properties=species:S:1:pos:R:3 pbc="F F F"
C        1.79179746       1.79179746      -1.79179746
C        1.25538859       2.93029321      -2.38304626
C        2.07455706       3.74590324      -3.15982788
C        3.42329187       3.41684315      -3.34180329
C        3.96805835       2.25117669      -2.78929878
C        3.13059525       1.44798403      -1.99577723
C        5.37123746       1.84942583      -2.98644677
C        6.20504439       1.17946470      -2.09976492
C        7.43019190       0.94660474      -2.76915888
N        7.38189420       1.46401756      -4.00026085
N        6.13446591       1.96656375      -4.13396330
C        5.82086633       2.58481557      -5.42492043
C        4.64328703       1.99552678      -6.17389946
C        4.31802867       0.63152674      -6.05167314
C        3.24603797       0.08055033      -6.75352633
C        2.49424832       0.87557160      -7.61003755
C        2.82264770       2.21890081      -7.77715830
C        3.90379422       2.78810873      -7.08409116
C        4.22064173       4.24152993      -7.32019142
C        8.62653001       0.25359495      -2.28756421
C        8.55096485      -0.69864885      -1.25994906
C        9.69854163      -1.37311378      -0.82966673
C       10.93310858      -1.10094323      -1.41795919
C       11.01551386      -0.15489392      -2.43732508
Br      12.68725814       0.21570296      -3.23834653
C        9.87458317       0.51716306      -2.87361166
H        0.21038479       3.19431561      -2.23883682
H        1.66682469       4.63876694      -3.62149068
H        4.03205694       4.10549425      -3.91880581
H        3.51765293       0.54450420      -1.53590374
H        5.95350993       0.89315432      -1.08826014
H        6.70944393       2.48539092      -6.06229554
H        5.69569038       3.64980995      -5.21227433
H        4.89732893      -0.02285722      -5.40184720
H        3.00237931      -0.97124085      -6.63233976
H        1.65903207       0.44777800      -8.15713204
H        2.23154048       2.82131694      -8.46496754
H        3.88656100       4.84285859      -6.46903466
H        3.72270308       4.61822522      -8.21951066
H        5.29479671       4.38522696      -7.47123468
H        7.59908414      -0.94377470      -0.79668557
H        9.62683746      -2.11680683      -0.03912999
H       11.81893943      -1.63081831      -1.08116808
H        9.94983210       1.24880228      -3.67611127
C       -1.79179746      -1.79179746      -1.79179746
C       -1.36586349      -3.07103070      -2.13183387
C       -2.19021016      -3.88005963      -2.91001840
C       -3.43330857      -3.40418248      -3.34444726
C       -3.85790617      -2.10332409      -3.04730357
C       -3.01987891      -1.30628923      -2.24818836
C       -5.14079308      -1.55135029      -3.51496668
C       -5.97124993      -0.64380571      -2.86921837
C       -7.04258551      -0.35533307      -3.74803694
N       -6.90998345      -1.06142810      -4.87476107
N       -5.75051428      -1.74289762      -4.74158105
C       -5.36611556      -2.59295181      -5.87153495
C       -4.02018414      -2.29351501      -6.49901411
C       -3.50427147      -0.98398545      -6.51297164
C       -2.27403073      -0.70033371      -7.10575018
C       -1.54753762      -1.71437960      -7.71794025
C       -2.05719934      -3.01031481      -7.75119266
C       -3.29807162      -3.31194272      -7.16597978
C       -3.80439004      -4.72797651      -7.24999654
C       -8.16924367       0.56019471      -3.55864021
C       -8.08482595       1.64293938      -2.67037850
C       -9.15975048       2.52566487      -2.52100896
C      -10.33061207       2.33409863      -3.25361109
C      -10.42186474       1.25963549      -4.13571577
Br     -12.00706985       0.99753834      -5.13177612
C       -9.35225089       0.37922201      -4.29232900
H       -0.40456626      -3.44810544      -1.79086552
H       -1.86911006      -4.88122647      -3.17674578
H       -4.05892189      -4.08610778      -3.91132733
H       -3.31884382      -0.29781646      -1.98140059
H       -5.81711678      -0.23886932      -1.87893829
H       -6.13349132      -2.47554027      -6.64809881
H       -5.43973986      -3.61833781      -5.49969701
H       -4.05614109      -0.16333479      -6.05684302
H       -1.88684759       0.31465415      -7.09128479
H       -0.58922265      -1.49487457      -8.17984488
H       -1.48047471      -3.78769195      -8.24965830
H       -3.68723818      -5.22774818      -6.28346789
H       -3.25472259      -5.30515371      -8.00056266
H       -4.85732752      -4.74688737      -7.54704346
H       -7.17783185       1.82667063      -2.10083379
H       -9.07978130       3.36767211      -1.83705142
H      -11.15953859       3.02526250      -3.13501310
H       -9.43217507      -0.45239281      -4.99017777
C       -1.79179746       1.79179746       1.79179746
C       -3.17573818       1.69295011       1.70003978
C       -3.97215754       2.47790684       2.53022380
C       -3.37988333       3.35740257       3.44465242
C       -1.98891773       3.50052206       3.51909404
C       -1.20048923       2.68937945       2.68448783
C       -1.32694771       4.43980132       4.44036102
C       -0.10607753       4.29148751       5.08670896
C        0.14162986       5.49016610       5.79741928
N       -0.87814632       6.33744542       5.63058087
N       -1.73187361       5.71607732       4.78704202
C       -2.94285896       6.45916015       4.42858321
C       -3.15426141       6.70899518       2.94945667
C       -2.05930452       6.86336746       2.07855657
C       -2.24901335       7.11181675       0.71928453
C       -3.53534956       7.23590777       0.20860014
C       -4.63312226       7.12654680       1.05903776
C       -4.45994977       6.88423130       2.43181305
C       -5.68500213       6.79395938       3.30340158
C        1.30099666       5.85511672       6.61356910
C        2.55061727       5.24940973       6.41347260
C        3.65601276       5.62875472       7.18235261
C        3.52409236       6.61329387       8.16092303
C        2.28552377       7.21718131       8.36628748
Br       2.10312790       8.55341449       9.69102104
C        1.18131695       6.84665606       7.60001878
H       -3.64067825       1.00612776       0.99673121
H       -5.05269494       2.40474553       2.46964184
H       -4.04030478       3.91584187       4.10021035
H       -0.11813524       2.75755323       2.72237240
H        0.52917908       3.41787699       5.04622648
H       -2.89191304       7.43416211       4.93105525
H       -3.76735457       5.90524041       4.88517968
H       -1.03808681       6.78870309       2.44952899
H       -1.38996984       7.21177466       0.06173372
H       -3.68451635       7.42925471      -0.84982896
H       -5.63235339       7.24285260       0.64261897
H       -5.88801627       5.74979240       3.56064559
H       -6.56725561       7.19729326       2.79589009
H       -5.55385381       7.37814001       4.21926452
H        2.68620601       4.49280384       5.64539717
H        4.62254776       5.15978408       7.01192430
H        4.38722855       6.90501094       8.75150681
H        0.22028908       7.33084246       7.76419226
C        1.79179746      -1.79179746       1.79179746
C        2.99778852      -1.29608870       2.27485084
C        3.78065819      -2.09551452       3.10411547
C        3.35370040      -3.38521638       3.44302153
C        2.16337264      -3.91511194       2.93004924
C        1.37857096      -3.08873873       2.10704681
C        1.69635984      -5.27893769       3.23181252
C        0.38866265      -5.72818570       3.36742565
C        0.44418076      -7.12722702       3.57454773
N        1.71678421      -7.53431411       3.59507429
N        2.45526118      -6.42915359       3.35057819
C        3.90756364      -6.61849188       3.30454680
C        4.58948681      -6.20746153       2.01576493
C        3.91916485      -6.30049550       0.78156822
C        4.54913093      -5.94062068      -0.40963698
C        5.86855653      -5.50505019      -0.39374925
C        6.56434911      -5.44298084       0.81137686
C        5.94769827      -5.80904694       2.01924891
C        6.75737028      -5.73770957       3.28728324
C       -0.65581554      -8.07814966       3.74535505
C       -1.93830237      -7.80344584       3.24712160
C       -2.97240741      -8.73415733       3.39334465
C       -2.73765416      -9.94616141       4.04161729
C       -1.46703335     -10.22428538       4.54069299
Br      -1.14455290     -11.86701516       5.41884537
C       -0.43125559      -9.30268066       4.39393282
H        3.33043257      -0.29246419       2.02064046
H        4.72083648      -1.71631314       3.48993269
H        3.97584074      -3.95387504       4.12664122
H        0.44097247      -3.45522263       1.70186577
H       -0.49942107      -5.11377806       3.32056740
H        4.10576748      -7.68654137       3.46482155
H        4.29607582      -6.08539284       4.17630601
H        2.89022363      -6.65393533       0.73215994
H        4.00809144      -6.00494855      -1.34956176
H        6.36032412      -5.22433523      -1.32071725
H        7.60232807      -5.11452079       0.80097610
H        6.46158471      -4.86266322       3.87420632
H        7.82823995      -5.65836252       3.07383649
H        6.62175804      -6.64343927       3.88606103
H       -2.14452821      -6.87502208       2.72150113
H       -3.96032841      -8.51518215       2.99430688
H       -3.54422939     -10.66514030       4.14837829
H        0.55940490      -9.53412107       4.78121968
C       -0.00445707       0.01189536      -1.78238275
H       -0.66409135       0.67374010      -2.43557963
H        0.65740317      -0.63156657      -2.45157240
C       -0.90989263      -0.90692880      -0.91072765
C        0.90977584       0.90977584      -0.90977584
C       -0.00465871       1.77757030       0.00794375
H       -0.66225468       2.44313916      -0.64384735
H        0.64322798       2.43503045       0.67728295
C       -1.78241447       0.00034974      -0.00472694
H       -2.45427497      -0.65498947       0.64260836
H       -2.43311707       0.67328779      -0.65473579
C       -0.91132561       0.90220522       0.91563759
C       -0.01476271      -0.02253852       1.78660255
H       -0.67934791      -0.69751639       2.42135241
H        0.63392994       0.61504881       2.47327442
C        0.01484550      -1.77751727      -0.01636693
H        0.67870853      -2.42144646      -0.68295456
H       -0.62264859      -2.45592969       0.64226336
C        1.78714474       0.01002794       0.00389507
H        2.44202412       0.67113390       0.66197326
H        2.45385902      -0.65136977      -0.64189061
C        0.91606151      -0.90478549       0.90901405
