177
Properties=species:S:1:pos:R:3 pbc="F F F"
C        0.00000000       0.00000000       0.00000000
C        0.88189344       0.88189344      -0.88189344
C        0.34548457       2.02038918      -1.47314224
C        1.16465304       2.83599921      -2.24992386
C        2.51338785       2.50693913      -2.43189926
C        3.05815432       1.34127267      -1.87939475
C        2.22069123       0.53808000      -1.08587320
C        4.46133343       0.93952180      -2.07654275
C        5.29514037       0.26956067      -1.18986089
C        6.52028787       0.03670072      -1.85925485
N        6.47199018       0.55411353      -3.09035683
N        5.22456188       1.05665973      -3.22405927
C        4.91096230       1.67491154      -4.51501640
C        3.73338300       1.08562276      -5.26399543
C        3.40812465      -0.27837728      -5.14176912
C        2.33613395      -0.82935370      -5.84362230
C        1.58434429      -0.03433242      -6.70013353
C        1.91274368       1.30899678      -6.86725428
C        2.99389020       1.87820471      -6.17418714
C        3.31073771       3.33162591      -6.41028740
C        7.71662598      -0.65630908      -1.37766018
C        7.64106083      -1.60855287      -0.35004504
C        8.78863761      -2.28301781       0.08023730
C       10.02320455      -2.01084726      -0.50805517
C       10.10560983      -1.06479794      -1.52742105
Br      11.77735412      -0.69420107      -2.32844251
C        8.96467914      -0.39274097      -1.96370764
H       -0.69951923       2.28441159      -1.32893279
H        0.75692066       3.72886291      -2.71158666
H        3.12215292       3.19559023      -3.00890179
H        2.60774890      -0.36539982      -0.62599972
H        5.04360591      -0.01674971      -0.17835611
H        5.79953990       1.57548690      -5.15239152
H        4.78578636       2.73990593      -4.30237031
H        3.98742490      -0.93276125      -4.49194317
H        2.09247529      -1.88114487      -5.72243574
H        0.74912805      -0.46212603      -7.24722801
H        1.32163645       1.91141292      -7.55506352
H        2.97665698       3.93295456      -5.55913064
H        2.81279906       3.70832119      -7.30960664
H        4.38489269       3.47532293      -6.56133065
H        6.68918011      -1.85367872       0.11321846
H        8.71693344      -3.02671086       0.87077403
H       10.90903540      -2.54072233      -0.17126406
H        9.03992807       0.33889826      -2.76620725
C       -0.88189344      -0.88189344      -0.88189344
C       -0.29360376      -1.76039785      -1.78501438
C       -1.10440518      -2.58350645      -2.56266448
C       -2.49723407      -2.52134009      -2.43365208
C       -3.10649375      -1.61174720      -1.56058080
C       -2.27239278      -0.79961010      -0.77264155
C       -4.56752474      -1.48857870      -1.42129454
C       -5.29781931      -1.17502804      -0.28171458
C       -6.65840564      -1.09451922      -0.66331858
N       -6.78305349      -1.36804980      -1.96535725
N       -5.52443620      -1.56370387      -2.41714081
C       -5.38911223      -1.86757787      -3.84420014
C       -4.51774059      -0.92113487      -4.64412574
C       -4.41594385       0.43836213      -4.29393476
C       -3.62947400       1.31739151      -5.03832007
C       -2.94993894       0.86094226      -6.16114872
C       -3.06786353      -0.47154324      -6.54958797
C       -3.86183443      -1.36852089      -5.81592673
C       -3.96414932      -2.79245341      -6.29604829
C       -7.82722521      -0.76529019       0.15453832
C       -7.70211907      -0.01197549       1.33154157
C       -8.83170016       0.31866770       2.08764997
C      -10.09643278      -0.10260234       1.67862266
C      -10.22744446      -0.85284253       0.51205404
Br     -11.94061503      -1.42449335      -0.04648718
C       -9.10594602      -1.18153588      -0.24816392
H        0.78782029      -1.81784142      -1.88380402
H       -0.65506085      -3.27556791      -3.26674147
H       -3.08539043      -3.21244969      -3.02880481
H       -2.70407720      -0.09264555      -0.07162604
H       -4.89122738      -1.02205126       0.70806633
H       -6.39605010      -1.84961145      -4.28175677
H       -5.03866916      -2.90219934      -3.88719410
H       -4.94897842       0.83202252      -3.42965093
H       -3.55214453       2.35951580      -4.74113743
H       -2.33697687       1.54443304      -6.74168620
H       -2.54055218      -0.80612510      -7.44143562
H       -3.35798440      -3.44778264      -5.66297514
H       -3.61048159      -2.89296800      -7.32727730
H       -5.00423875      -3.13211208      -6.28519544
H       -6.73105600       0.34507845       1.66369462
H       -8.72433887       0.91177668       2.99311364
H      -10.96899277       0.16071016       2.26870548
H       -9.22134593      -1.76172606      -1.16196160
C       -0.88189344       0.88189344       0.88189344
C       -1.95353387       1.56630505       0.31917707
C       -2.77146903       2.34301522       1.13609186
C       -2.51140794       2.43178456       2.50903374
C       -1.41105037       1.78396930       3.08380208
C       -0.60535057       0.99228796       2.24700590
C       -1.08084440       1.88069312       4.51586047
C       -0.50955964       0.91260686       5.33239544
C       -0.31164911       1.49955553       6.60503880
N       -0.75743111       2.75928216       6.59974728
N       -1.17904762       2.98968121       5.33655206
C       -1.70676051       4.32938002       5.06474972
C       -1.01044147       5.10624101       3.96631871
C        0.36135679       4.92338309       3.70949017
C        1.01081409       5.64971588       2.71150076
C        0.30848104       6.59047213       1.96815430
C       -1.04044240       6.81671724       2.23183509
C       -1.70812269       6.09969582       3.23846353
C       -3.16235725       6.40169093       3.48860283
C        0.28378796       0.91415384       7.80761122
C        1.18128728      -0.16108031       7.72492058
C        1.76385532      -0.69159909       8.88083692
C        1.45336130      -0.15684307      10.13061683
C        0.56119152       0.90943676      10.21998771
Br       0.13894732       1.63806806      11.91247482
C       -0.01903224       1.44543894       9.07117464
H       -2.16424244       1.49484567      -0.74526297
H       -3.61275962       2.87704053       0.70757008
H       -3.20154029       3.01350112       3.11160353
H        0.24781426       0.46056182       2.65560123
H       -0.26484558      -0.09850278       5.03886952
H       -1.62417356       4.91049044       5.99275432
H       -2.77276574       4.18574536       4.86955150
H        0.94474176       4.20619664       4.28515195
H        2.06673509       5.48147065       2.51903060
H        0.81302271       7.15672435       1.19052840
H       -1.56926854       7.56941016       1.64943419
H       -3.78895440       5.60619133       3.07359645
H       -3.46001088       7.34710304       3.02361296
H       -3.35938912       6.50191780       4.56023936
H        1.45532168      -0.58507258       6.76267718
H        2.46618246      -1.51867116       8.80430217
H        1.91201678      -0.57152739      11.02312129
H       -0.70889533       2.28354641       9.15259184
C        0.88189344      -0.88189344       0.88189344
C        2.10191048      -0.39702087       1.34008464
C        2.88522233      -1.19577101       2.16958277
C        2.44465286      -2.47401159       2.53356179
C        1.23936067      -2.99372739       2.04573369
C        0.45459969      -2.16791648       1.22212827
C        0.75712483      -4.34602535       2.37424781
C       -0.55480874      -4.77398888       2.53538180
C       -0.51652648      -6.17054761       2.76222231
N        0.75020988      -6.59595876       2.77029190
N        1.50094648      -5.50543197       2.49890244
C        2.94951980      -5.71674668       2.43462377
C        3.61830658      -5.33450008       1.13019453
C        2.92863602      -5.43554067      -0.09266020
C        3.54617010      -5.10226125      -1.29802880
C        4.87185860      -4.68594985      -1.30766305
C        5.58611839      -4.61666289      -0.11378654
C        4.98205203      -4.95608654       1.10814347
C        5.81122606      -4.87829625       2.36312871
C       -1.62755413      -7.10262236       2.96290885
C       -2.91311232      -6.81634185       2.47932346
C       -3.95833133      -7.72953459       2.65417925
C       -3.73165715      -8.93533955       3.31673007
C       -2.45799962      -9.22485284       3.80137973
Br      -2.14647774     -10.85925098       4.69882232
C       -1.41124807      -8.32079731       3.62609657
H        2.44528679       0.59781683       1.06635519
H        3.83636586      -0.82488209       2.53612229
H        3.06847182      -3.04179095       3.21638216
H       -0.49406502      -2.52640908       0.83600473
H       -1.43449079      -4.14733554       2.49236757
H        3.13456402      -6.78516036       2.60769394
H        3.35848806      -5.17684284       3.29273170
H        1.89406714      -5.77449487      -0.12195518
H        2.99049635      -5.17223908      -2.22896928
H        5.35396126      -4.42595363      -2.24568485
H        6.62848196      -4.30368250      -0.14405157
H        5.53680907      -3.99058490       2.94134821
H        6.87987935      -4.81780098       2.13304656
H        5.67132325      -5.77316452       2.97705850
H       -3.11357051      -5.89269923       1.94315421
H       -4.94873557      -7.50186405       2.26632007
H       -4.54690742      -9.64076134       3.44572321
H       -0.41845826      -8.56114093       4.00235091
