198
Properties=species:S:1:pos:R:3 pbc="F F F"
C        1.79175613       1.79175613      -1.79175613
C        1.66970769       1.72502861      -3.17696380
C        2.47345257       2.53842102      -3.97973952
C        3.40884947       3.41469530      -3.40715420
C        3.51914196       3.46782247      -2.01058770
C        2.70993835       2.66041226      -1.20396047
C        4.24254040       4.25710494      -4.26270820
C        5.55606488       4.72795459      -4.02609834
C        5.92678259       5.47271779      -5.13571686
C        7.18440760       6.19278778      -5.37079689
C        7.83860899       6.17500214      -6.60912928
C        9.03702292       6.87273757      -6.80128821
C        9.61072165       7.56606017      -5.74136839
Br      11.23820896       8.49385423      -5.99508833
C        8.99963480       7.56854971      -4.49204445
C        7.79071456       6.88848293      -4.31260917
N        4.82373363       5.41335301      -5.96512336
C        4.59178960       6.07679653      -7.24831172
C        4.99943212       5.24806688      -8.44971421
C        5.43837815       5.89864333      -9.61223749
C        5.81606595       5.16853039     -10.73965176
C        5.75387304       3.77480177     -10.72500146
C        5.30956975       3.10229550      -9.58456638
C        5.20215387       1.60531635      -9.57587204
C        4.90902989       3.84426637      -8.46513708
N        3.80152130       4.69407368      -5.44689900
H        0.95542228       1.05249653      -3.64310217
H        2.36937676       2.48616191      -5.06292066
H        4.21868949       4.15049395      -1.53408040
H        2.80066851       2.72114369      -0.12257163
H        6.17138023       4.53300278      -3.15891126
H        7.45110975       5.59539282      -7.43981879
H        9.51601200       6.85170302      -7.77735510
H        9.45023582       8.09121396      -3.65383670
H        7.32520646       6.90723284      -3.32813102
H        5.13255597       7.02903240      -7.21915943
H        3.52110356       6.30705430      -7.31240615
H        5.49396220       6.98558701      -9.64834931
H        6.15644671       5.68443160     -11.63322090
H        6.04811396       3.21799644     -11.61224123
H        5.30988577       1.21083100      -8.55955495
H        5.99508716       1.15503803     -10.18288117
H        4.23026002       1.29653003      -9.97312426
H        4.52947119       3.31106707      -7.59444319
C       -1.79175613      -1.79175613      -1.79175613
C       -2.66643099      -2.70140983      -1.20385928
C       -3.47628111      -3.50127264      -2.01405937
C       -3.41184450      -3.40572522      -3.41312925
C       -2.52438117      -2.48520532      -3.98796564
C       -1.71806484      -1.67720052      -3.17904572
C       -4.26550830      -4.25174981      -4.24509542
C       -4.00650927      -4.76541819      -5.53819035
C       -5.10754949      -5.52658717      -5.90108057
C       -5.34062028      -6.25049980      -7.15687220
C       -5.89799416      -7.53503027      -7.18971599
C       -6.10790113      -8.19882300      -8.40432457
C       -5.72642873      -7.59463189      -9.59708958
Br      -5.99312515      -8.49760877     -11.23641761
C       -5.13707933      -6.33493663      -9.58821298
C       -4.95106286      -5.66745623      -8.37328757
N       -5.96011171      -5.42293768      -4.81916062
C       -7.31516445      -5.94894235      -4.65279104
C       -7.36604148      -7.32056385      -4.01060788
C       -8.41241561      -8.19327265      -4.34357071
C       -8.49491976      -9.46152416      -3.76780418
C       -7.53528203      -9.87506034      -2.84333390
C       -6.48945212      -9.02162404      -2.48535547
C       -5.47669927      -9.44488167      -1.46176132
C       -6.42788152      -7.74046663      -3.05008518
N       -5.46934143      -4.65115310      -3.82199945
H       -2.73164503      -2.79563550      -0.12374045
H       -4.16305973      -4.20712341      -1.54827619
H       -2.46453841      -2.37101630      -5.06770913
H       -1.04276432      -0.96129820      -3.64032131
H       -3.11487370      -4.61722353      -6.13119705
H       -6.15107162      -8.06008952      -6.27516022
H       -6.55452714      -9.19033087      -8.40021210
H       -4.81857412      -5.86368281     -10.51302956
H       -4.49301689      -4.67941777      -8.38813566
H       -7.78029321      -5.95587808      -5.64457650
H       -7.87222786      -5.23640930      -4.03192685
H       -9.17415935      -7.89246344      -5.06127574
H       -9.30925278     -10.12896246      -4.03588398
H       -7.61358398     -10.86532834      -2.39943931
H       -4.51996906      -8.93643791      -1.62386476
H       -5.28530452     -10.52153077      -1.52617106
H       -5.83716957      -9.20643985      -0.45630489
H       -5.62906204      -7.06980933      -2.73611009
C       -1.79175613       1.79175613       1.79175613
C       -1.76657127       1.63076753       3.17436131
C       -2.56964979       2.44418017       3.97778315
C       -3.40837195       3.41477669       3.40755033
C       -3.42194235       3.56214786       2.01346193
C       -2.61279833       2.75456945       1.20694331
C       -4.24297404       4.25578605       4.26359344
C       -5.50590041       4.82685454       3.97736285
C       -5.90246045       5.52396174       5.10879504
C       -7.12556589       6.31006465       5.31236173
C       -7.86056589       6.25863969       6.50353483
C       -9.02324386       7.02123805       6.66656679
C       -9.48075505       7.81597545       5.62141971
Br     -11.06046235       8.83238953       5.83429965
C       -8.78891253       7.85572327       4.41559315
C       -7.61551661       7.10922690       4.26706315
N       -4.86291483       5.33968886       5.99960632
C       -4.67595088       5.90487735       7.33606961
C       -5.21355305       5.03178378       8.45187638
C       -5.68745386       5.63633737       9.62546775
C       -6.18414972       4.86407148      10.67602690
C       -6.20818907       3.47292861      10.57255858
C       -5.73179151       2.84480211       9.41983800
C       -5.71763414       1.34745785       9.31825026
C       -5.21213054       3.62685744       8.37944536
N       -3.85534668       4.58770510       5.49944220
H       -1.12824368       0.88442041       3.63835689
H       -2.54135877       2.31763779       5.05946278
H       -4.04427087       4.31825808       1.54073489
H       -2.62739008       2.88854879       0.12844495
H       -6.07309710       4.72776723       3.06242995
H       -7.56612751       5.60383444       7.31635942
H       -9.56650980       6.97127800       7.60728231
H       -9.14924176       8.45848963       3.58755510
H       -7.08525816       7.15833378       3.31697838
H       -5.15311697       6.89095211       7.33667872
H       -3.59963007       6.05891749       7.48201645
H       -5.67740040       6.72019568       9.73030245
H       -6.55039783       5.34473013      11.57897126
H       -6.59498945       2.88267731      11.40068488
H       -5.78188636       1.02519044       8.27319493
H       -6.57575130       0.91396189       9.84329316
H       -4.79549515       0.95049236       9.75392680
H       -4.80946945       3.12493829       7.50057372
C        1.79175613      -1.79175613       1.79175613
C        2.63836190      -2.72831806       1.20502015
C        3.44840240      -3.52817787       2.01503284
C        3.41198122      -3.40570368       3.41301406
C        2.55254651      -2.45827991       3.98672572
C        1.74621244      -1.65032361       3.17777504
C        4.26537877      -4.25213028       4.24484448
C        4.02126185      -4.73696383       5.55189213
C        5.11471644      -5.51183665       5.90866414
C        5.35793018      -6.21675546       7.17330663
C        5.89208423      -7.51068946       7.21996673
C        6.11247649      -8.15583279       8.44273942
C        5.76462263      -7.52274295       9.63078462
Br       6.04534635      -8.40023529      11.28156989
C        5.19849639      -6.25259487       9.60913769
C        5.00204833      -5.60421894       8.38553939
N        5.94860458      -5.44412365       4.80948178
C        7.29038810      -5.99841807       4.62809167
C        7.30395947      -7.38234013       4.01091361
C        8.34015265      -8.26824004       4.34086628
C        8.38848827      -9.54819838       3.78756145
C        7.40423514      -9.96061316       2.88882796
C        6.36776219      -9.09444975       2.53421969
C        5.32837464      -9.51741112       1.53755649
C        6.34038349      -7.80218564       3.07586421
N        5.45351115      -4.68175679       3.80722604
H        2.68156535      -2.84361486       0.12584077
H        4.11321784      -4.25523627       1.55000523
H        2.51507289      -2.32313426       5.06505669
H        1.09297163      -0.91351533       3.63789687
H        3.14378152      -4.56118595       6.15832680
H        6.11826081      -8.05714642       6.31091414
H        6.54062135      -9.15544890       8.44899987
H        4.90611671      -5.75850904      10.53066074
H        4.56262490      -4.60765931       8.39028611
H        7.77382597      -5.99581828       5.61110354
H        7.84873208      -5.30800447       3.98382747
H        9.12062810      -7.96860827       5.03866216
H        9.19528204     -10.22574181       4.05307537
H        7.45595941     -10.96017792       2.46221431
H        4.38437290      -8.98821918       1.70767964
H        5.11843679     -10.58891404       1.62565551
H        5.67425556      -9.30431753       0.52134122
H        5.54829654      -7.12255998       2.76412494
C       -0.00445707       0.01189536      -1.78238275
H       -0.66409135       0.67374010      -2.43557963
H        0.65740317      -0.63156657      -2.45157240
C       -0.90989263      -0.90692880      -0.91072765
C        0.90977584       0.90977584      -0.90977584
C       -0.00465871       1.77757030       0.00794375
H       -0.66225468       2.44313916      -0.64384735
H        0.64322798       2.43503045       0.67728295
C       -1.78241447       0.00034974      -0.00472694
H       -2.45427497      -0.65498947       0.64260836
H       -2.43311707       0.67328779      -0.65473579
C       -0.91132561       0.90220522       0.91563759
C       -0.01476271      -0.02253852       1.78660255
H       -0.67934791      -0.69751639       2.42135241
H        0.63392994       0.61504881       2.47327442
C        0.01484550      -1.77751727      -0.01636693
H        0.67870853      -2.42144646      -0.68295456
H       -0.62264859      -2.45592969       0.64226336
C        1.78714474       0.01002794       0.00389507
H        2.44202412       0.67113390       0.66197326
H        2.45385902      -0.65136977      -0.64189061
C        0.91606151      -0.90478549       0.90901405
