133
Properties=species:S:1:pos:R:3 pbc="F F F"
C        0.00000000       0.00000000       0.00000000
O        5.53951905       3.04365937      -2.04949077
C        4.86925238       3.52840147      -2.95510902
N        3.52264451       3.30982955      -3.16467251
C        2.66199088       2.47568504      -2.39878909
C        3.14370803       1.57843923      -1.44194511
C        2.26661171       0.79369953      -0.69134470
C        0.88853554       0.88853554      -0.88853554
C        0.37614612       1.75891612      -1.86049298
Cl      -1.33819082       1.86671415      -2.12533426
C        1.26709092       2.54405912      -2.61992201
Cl       0.67667497       3.61605703      -3.86258339
C        5.53803720       4.37980462      -4.03119192
H        5.51151996       3.78492911      -4.95564970
C        7.03108972       4.70324580      -3.70723984
H        7.67354190       3.81968170      -3.67393183
C        7.34203903       5.68204004      -4.84613739
C        6.23967271       6.64605318      -4.44839879
H        6.11471802       7.53793938      -5.06664410
C        6.49169479       6.93351504      -2.96940833
H        7.10291839       7.82516952      -2.80273795
O        5.18507251       7.12764842      -2.41881560
C        4.28616078       6.41862526      -3.15995863
O        3.10759581       6.27238001      -2.88569581
C        4.97852623       5.78357901      -4.32830125
H        4.36446901       5.82274618      -5.23190937
C        7.10950937       5.61662085      -2.45855013
H        6.60017972       5.22094824      -1.57672877
Br       8.96295184       5.87593574      -1.91171192
H        3.03601368       3.90916396      -3.82875270
H        4.20595080       1.45383023      -1.25329747
H        2.67776429       0.11193811       0.05112065
H        7.19122476       5.24608524      -5.83910910
H        8.34071702       6.12422455      -4.79590762
O       -2.10074686      -2.97356816      -5.55835417
C       -3.00873187      -3.45507378      -4.88895722
N       -3.20923388      -3.24889318      -3.53901952
C       -2.40440235      -2.46800907      -2.66405359
C       -1.14996838      -1.97770893      -3.03641505
C       -0.39923426      -1.19315208      -2.15926960
C       -0.88853554      -0.88853554      -0.88853554
C       -2.13107495      -1.38890313      -0.47557714
Cl      -2.73703866      -1.03022612       1.11340720
C       -2.88174186      -2.18602807      -1.36330212
Cl      -4.41739736      -2.85736502      -0.88055301
C       -3.97994142      -4.44988819      -5.51920413
H       -3.75419510      -5.42788341      -5.07002025
C       -3.80081076      -4.57529029      -7.06547431
H       -2.82838977      -4.97593594      -7.36282972
C       -4.99648700      -5.47644131      -7.39728815
C       -6.01044750      -4.50999689      -6.81368029
H       -7.05950669      -4.81275760      -6.84703721
C       -5.71579541      -3.17791039      -7.50091237
H       -6.32208376      -3.01256622      -8.39617588
O       -6.02790163      -2.19232798      -6.51130692
C       -5.85032105      -2.73963269      -5.27479092
O       -5.91373751      -2.13162082      -4.22031329
C       -5.49376175      -4.18984559      -5.40679915
H       -5.98179751      -4.79729591      -4.64003114
C       -4.19530036      -3.24166530      -7.74771469
H       -3.66483496      -2.36552359      -7.36749817
Br      -3.79512211      -3.30042694      -9.65505045
H       -4.09581897      -3.54395858      -3.13415279
H       -0.71367117      -2.19175354      -4.00765379
H        0.57012555      -0.82166224      -2.48704504
H       -4.96869242      -6.43635479      -6.87137188
H       -5.13788315      -5.65658294      -8.46638311
O       -5.33682700       3.55507361       1.74076857
C       -4.75438757       3.80831707       2.79005823
N       -3.49615977       3.36139936       3.13958744
C       -2.64645155       2.51421414       2.37579931
C       -3.09079856       1.83495304       1.23834076
C       -2.22079902       1.03163829       0.49921863
C       -0.88853554       0.88853554       0.88853554
C       -0.41999105       1.53481577       2.04074840
Cl       1.23303570       1.34424911       2.54264417
C       -1.30484711       2.33947158       2.78675336
Cl      -0.77454021       3.13564701       4.24512817
C       -5.46115530       4.60226548       3.88561296
H       -5.65449389       3.89364901       4.70395587
C       -6.83156444       5.18930016       3.42071077
H       -7.57227297       4.42615060       3.16873186
C       -7.18061066       6.04521642       4.64438937
C       -5.91313172       6.87392317       4.54706978
H       -5.76733964       7.64694729       5.30501457
C       -5.89670958       7.38891828       3.10899030
H       -6.35241896       8.37739701       3.00100989
O       -4.50739336       7.45257059       2.77157258
C       -3.83335278       6.52338587       3.50800601
O       -2.65645796       6.23671724       3.37249641
C       -4.77328680       5.85280586       4.46431383
H       -4.30435323       5.67844533       5.43632601
C       -6.59765819       6.26054610       2.32647605
H       -6.01658101       5.91166058       1.46961514
Br      -8.29555683       6.86907699       1.58596567
H       -3.04167280       3.78671714       3.94554040
H       -4.11893560       1.89964047       0.89450243
H       -2.60028108       0.52441937      -0.38611871
H       -7.24168611       5.46428557       5.57044741
H       -8.09283864       6.63713147       4.53087908
O        1.80316334      -5.39430927       3.43519658
C        2.82324948      -4.78670881       3.74280458
N        3.14440063      -3.50327976       3.34946618
C        2.38043428      -2.65084103       2.50518969
C        1.28156041      -3.10895604       1.77357591
C        0.54010718      -2.23692674       0.97462201
C        0.88853554      -0.88853554       0.88853554
C        2.00240828      -0.40464879       1.58849816
Cl       2.45397637       1.26944718       1.46932839
C        2.75119617      -1.29133793       2.38853795
Cl       4.16388477      -0.74080250       3.25062812
C        3.91551461      -5.48368842       4.54983071
H        4.76272392      -5.62597851       3.86339634
C        3.47832790      -6.88770348       5.07554398
H        3.27674124      -7.60998647       4.28042773
C        4.68442152      -7.22525997       5.96053497
C        4.51709898      -5.99046194       6.82656375
H        5.24392501      -5.84618567       7.62919082
C        3.06318314      -6.03864212       7.29279290
H        2.93836810      -6.53088000       8.26157775
O        2.67697523      -4.66408635       7.39047495
C        3.42020269      -3.93517193       6.50937005
O        3.25435831      -2.75431272       6.25700059
C        4.42927643      -4.81999450       5.84113555
H        5.39003194      -4.31381641       5.71527621
C        2.34227376      -6.72622139       6.11618520
H        1.47810946      -6.16205112       5.75769614
Br       1.64017826      -8.46712324       6.64329799
H        3.92011681      -3.03729580       3.81651773
H        0.97082430      -4.14941117       1.79284302
H       -0.31476248      -2.62781564       0.42552859
H        5.63055939      -7.23623047       5.40962924
H        4.58254986      -8.16025192       6.51804741
