194
Properties=species:S:1:pos:R:3 pbc="F F F"
C        1.79138287       1.79138287      -1.79138287
C        2.52812038       1.22385152      -2.82561656
C        3.32797410       2.03317866      -3.64615565
C        3.42010354       3.41519111      -3.43048774
C        2.65718033       3.96023424      -2.37717455
C        1.84566395       3.16055930      -1.56595196
C        4.22489137       4.31602073      -4.28377488
N        4.08796538       5.63641766      -4.11870798
N        4.75562729       6.22115764      -5.13074052
C        4.54658517       7.61524562      -5.33941723
C        4.21654841       8.42127853      -4.23375797
C        4.00644425       9.79250896      -4.39658735
C        4.09213218      10.35722337      -5.66452950
C        4.38638419       9.55086664      -6.75941951
F        4.43606306      10.09594603      -7.98057896
C        4.61890515       8.18450844      -6.61218159
C        5.54734362       5.30859645      -5.82344535
C        6.58243480       5.65531262      -6.81467237
C        7.48891805       6.70341899      -6.57988933
C        8.46250387       7.03979403      -7.52648329
C        8.56730186       6.30000806      -8.70114061
C        7.69956933       5.23815098      -8.94267643
C        6.70442745       4.92752720      -8.00827239
C        5.21093555       4.05736706      -5.29220443
C        5.80150740       2.74503303      -5.67277056
H        2.48188534       0.15400799      -3.01345459
H        3.85013102       1.54697205      -4.46187094
H        2.67589004       5.03163115      -2.18684688
H        1.26401719       3.62183912      -0.77178797
H        4.14556775       7.99377275      -3.23425186
H        3.77341447      10.41288284      -3.53299617
H        3.91980814      11.41993455      -5.81111375
H        4.80444771       7.59879998      -7.50605101
H        7.44418472       7.28104309      -5.66043153
H        9.13109473       7.87310373      -7.33406597
H        7.78528236       4.64900974      -9.84973670
H        6.02580543       4.10651391      -8.22587172
H        5.13083834       2.20844296      -6.35237344
H        5.98740374       2.12534016      -4.78914805
H        6.76969224       2.85486075      -6.17033915
C        9.57964925       6.63293609      -9.66959901
C       10.42749020       6.91176332     -10.48068293
Br      11.79837729       7.36260336     -11.79213701
C       -1.79138287      -1.79138287      -1.79138287
C       -2.94961037      -2.35804800      -1.26993009
C       -3.76900533      -3.15690954      -2.08139354
C       -3.43085602      -3.41855978      -3.41636661
C       -2.25311276      -2.82541601      -3.91606034
C       -1.44073252      -2.01515173      -3.11629096
C       -4.27426223      -4.22900664      -4.32141810
N       -3.96740789      -4.25244518      -5.62323795
N       -4.98385463      -4.87756268      -6.24610815
C       -5.03177549      -4.80118443      -7.66828811
C       -3.82361794      -4.66964479      -8.37832218
C       -3.82829387      -4.59421366      -9.77303302
C       -5.03692996      -4.61644354     -10.46051154
C       -6.23059422      -4.71359482      -9.75248130
F       -7.39096599      -4.70263704     -10.41898502
C       -6.24329307      -4.81021063      -8.36209148
C       -5.84378001      -5.49460163      -5.34100378
C       -6.90259038      -6.45951641      -5.69031301
C       -6.66616386      -7.49258952      -6.61347299
C       -7.67517287      -8.39988770      -6.95372061
C       -8.92077271      -8.30902725      -6.33865057
C       -9.16941190      -7.31214619      -5.39883865
C       -8.16762070      -6.38511840      -5.08748794
C       -5.40380986      -5.07824451      -4.07845267
C       -5.97214566      -5.48347760      -2.76368773
H       -3.23475415      -2.17827986      -0.23631390
H       -4.67990596      -3.54138247      -1.63768558
H       -1.96237735      -2.97836295      -4.95362777
H       -0.54714952      -1.56702580      -3.54346896
H       -2.86876968      -4.65063338      -7.85418930
H       -2.88821785      -4.51496518     -10.31611045
H       -5.05970042      -4.54660497     -11.54455105
H       -7.20480865      -4.84327529      -7.86121475
H       -5.69535046      -7.60045367      -7.08985521
H       -7.47587303      -9.17024155      -7.69214985
H      -10.13351509      -7.24478801      -4.90572570
H       -8.38955031      -5.60371505      -4.36492570
H       -6.62428360      -4.69566020      -2.37171095
H       -5.17846709      -5.68652012      -2.03690474
H       -6.55841938      -6.40470901      -2.83176376
C       -9.95594156      -9.25216928      -6.67407351
C      -10.82289548     -10.04205073      -6.95499023
Br     -12.22468664     -11.31922223      -7.40920880
C       -1.79138287       1.79138287       1.79138287
C       -2.19439232       3.04358173       1.33961443
C       -3.01596207       3.84993759       2.14140875
C       -3.42666914       3.42619961       3.41291365
C       -3.00513294       2.14991902       3.83953716
C       -2.19917534       1.33506587       3.03793400
C       -4.31548444       4.22460654       4.28459599
N       -4.80838067       3.64818885       5.38652150
N       -5.72965069       4.49458434       5.88329042
C       -6.59232068       4.00330222       6.90562513
C       -6.11683275       2.99264032       7.76211183
C       -6.93084768       2.48659492       8.77809795
C       -8.22970316       2.96219057       8.92199132
C       -8.70643385       3.93789973       8.05233676
F       -9.96752616       4.36785832       8.17720357
C       -7.90120374       4.46843994       7.04595151
C       -5.67341831       5.74110319       5.26486392
C       -6.36274441       6.95815702       5.73151837
C       -6.36902268       7.31131771       7.09188598
C       -7.03403722       8.45944638       7.53529758
C       -7.66347560       9.29144948       6.61352544
C       -7.64538197       8.97806739       5.25694738
C       -7.00852407       7.80966018       4.82204279
C       -4.76220508       5.58528020       4.21302175
C       -4.32201973       6.63905661       3.25823465
H       -1.88674431       3.40215433       0.36044927
H       -3.33377438       4.79911486       1.72608477
H       -3.31943785       1.76653160       4.80839862
H       -1.90580780       0.35262036       3.39921612
H       -5.10188081       2.60966270       7.66204886
H       -6.54808978       1.72079449       9.45040921
H       -8.88056807       2.57113195       9.69915642
H       -8.33898608       5.19756599       6.37274663
H       -5.86476195       6.69198740       7.82890999
H       -7.04943979       8.69364076       8.59518388
H       -8.12200505       9.62981568       4.53220807
H       -7.02283899       7.57468710       3.76066497
H       -4.85169433       6.53468856       2.30527186
H       -3.24348775       6.58126014       3.07714406
H       -4.50784263       7.64760306       3.63944646
C       -8.33405340      10.48312515       7.06500580
C       -8.89566231      11.48115352       7.44312060
Br      -9.80373642      13.09488099       8.05450026
C        1.79138287      -1.79138287       1.79138287
C        1.43944920      -2.02086228       3.11727699
C        2.23982158      -2.84178476       3.92570207
C        3.41300713      -3.42524202       3.42753325
C        3.73927037      -3.17706400       2.07825474
C        2.93666947      -2.37243181       1.26307393
C        4.27519061      -4.32095647       4.22853990
N        5.25628574      -4.98233957       3.60446571
N        5.74947546      -5.86540088       4.49264911
C        6.62520594      -6.87595003       4.00009206
C        7.41048562      -6.59474144       2.86635784
C        8.28305343      -7.55789044       2.35459669
C        8.35088857      -8.81263566       2.95036082
C        7.54871702      -9.09704077       4.05091254
F        7.59648695     -10.31678911       4.59931199
C        6.68742325      -8.14124641       4.58692552
C        5.27637856      -5.62314585       5.77986101
C        5.80185122      -6.23765886       7.01290971
C        7.18520174      -6.35537985       7.23164478
C        7.68264466      -6.95000524       8.39613129
C        6.79876581      -7.39382488       9.37585984
C        5.42456473      -7.26097516       9.19485685
C        4.93064934      -6.69708168       8.01249602
C        4.30686776      -4.62391042       5.62972885
C        3.51738136      -3.98432666       6.71760298
H        0.53861767      -1.57697587       3.53375437
H        1.89974394      -3.02012950       4.93910057
H        4.62660650      -3.62883181       1.63892975
H        3.21734743      -2.21570502       0.22459183
H        7.36851309      -5.61667836       2.38840091
H        8.90333634      -7.32507470       1.49088245
H        9.01519966      -9.57766716       2.55798962
H        6.05701501      -8.43195859       5.42032510
H        7.89693709      -5.99510964       6.49361261
H        8.75503746      -7.05608149       8.52714548
H        4.73112565      -7.59208009       9.96082306
H        3.85382663      -6.62032794       7.88403650
H        2.51203943      -4.41653672       6.76307859
H        3.43617904      -2.90326271       6.56245020
H        3.98462109      -4.11159269       7.69867836
C        7.30831733      -7.99061262      10.58325440
C        7.73506673      -8.49042236      11.59444735
Br       8.42508441      -9.29857243      13.22946083
C       -0.00445707       0.01189536      -1.78238275
H       -0.66409135       0.67374010      -2.43557963
H        0.65740317      -0.63156657      -2.45157240
C       -0.90989263      -0.90692880      -0.91072765
C        0.90977584       0.90977584      -0.90977584
C       -0.00465871       1.77757030       0.00794375
H       -0.66225468       2.44313916      -0.64384735
H        0.64322798       2.43503045       0.67728295
C       -1.78241447       0.00034974      -0.00472694
H       -2.45427497      -0.65498947       0.64260836
H       -2.43311707       0.67328779      -0.65473579
C       -0.91132561       0.90220522       0.91563759
C       -0.01476271      -0.02253852       1.78660255
H       -0.67934791      -0.69751639       2.42135241
H        0.63392994       0.61504881       2.47327442
C        0.01484550      -1.77751727      -0.01636693
H        0.67870853      -2.42144646      -0.68295456
H       -0.62264859      -2.45592969       0.64226336
C        1.78714474       0.01002794       0.00389507
H        2.44202412       0.67113390       0.66197326
H        2.45385902      -0.65136977      -0.64189061
C        0.91606151      -0.90478549       0.90901405
