165
Properties=species:S:1:pos:R:3 pbc="F F F"
C        0.00000000       0.00000000       0.00000000
C        0.88136040       0.88136040      -0.88136040
C        0.40485155       2.11529034      -1.31954108
C        1.21134168       2.91781930      -2.13096557
C        2.49934621       2.49968559      -2.50286145
C        2.96197318       1.25502974      -2.05220261
C        2.15328323       0.44664172      -1.24563743
C        3.33064561       3.35405170      -3.35069060
C        4.74199263       3.44508766      -3.39879862
C        5.05722030       4.40400927      -4.35023447
C        6.38631499       4.84597756      -4.79338706
C        6.68164201       6.18778997      -5.06222493
C        7.96008669       6.57594822      -5.48289689
C        8.96718741       5.62441262      -5.60336424
Br      10.69674253       6.14887157      -6.15411958
C        8.70704867       4.29022372      -5.30858660
C        7.42303024       3.90588791      -4.91018247
N        3.82821046       4.82447040      -4.82184742
N        2.78431302       4.20051772      -4.23020283
C        3.52050822       5.76109150      -5.90269859
C        3.27161233       7.17555873      -5.43181079
C        2.72093050       7.49051131      -4.17998838
C        2.49680081       8.82275770      -3.81132501
C        2.79892269       9.85475340      -4.69490322
C        3.31920055       9.55809146      -5.95185107
C        3.54333609       8.23028430      -6.30950133
F        4.04284234       7.96908603      -7.52561643
H       -0.58714120       2.46178608      -1.04259135
H        0.83073369       3.87798824      -2.47447645
H        3.94526306       0.89050415      -2.33939664
H        2.52381266      -0.51940975      -0.91375336
H        5.45022591       2.89088721      -2.79870418
H        5.93619811       6.96575048      -4.92968204
H        8.15565527       7.62282563      -5.70072767
H        9.49245874       3.54180494      -5.38404569
H        7.24163116       2.85590553      -4.69193028
H        2.62517748       5.38603446      -6.41360697
H        4.34921315       5.71159413      -6.61658460
H        2.45642167       6.70823178      -3.46979587
H        2.07905087       9.04653252      -2.83202281
H        2.62034009      10.88781588      -4.40689359
H        3.54854443      10.35027566      -6.65713173
C       -0.88136040      -0.88136040      -0.88136040
C       -1.49824045      -2.00548042      -0.33596211
C       -2.30000906      -2.81394286      -1.14617462
C       -2.49852826      -2.50234831      -2.50101667
C       -1.86987194      -1.36707108      -3.03226251
C       -1.06076553      -0.56024464      -2.22455222
C       -3.34327087      -3.35861109      -3.33350595
C       -4.11462274      -3.00521708      -4.46603909
C       -4.75068923      -4.15793169      -4.90284312
C       -5.64044510      -4.32546435      -6.05977016
C       -6.78667975      -5.12812053      -6.01685663
C       -7.61449642      -5.26609026      -7.13834512
C       -7.31963722      -4.56977089      -8.30555617
Br      -8.44471904      -4.74130890      -9.81370575
C       -6.20537014      -3.73915442      -8.36133444
C       -5.37090321      -3.62277717      -7.24542025
N       -4.32199774      -5.13162569      -4.02090485
N       -3.47586958      -4.66405199      -3.07511201
C       -4.58524307      -6.57066177      -4.02839347
C       -5.74468657      -6.98329802      -3.15099725
C       -6.10871274      -6.30531919      -1.97739826
C       -7.18272565      -6.75104774      -1.19711013
C       -7.89207941      -7.89010355      -1.56639634
C       -7.52583138      -8.59088791      -2.71242380
C       -6.45881490      -8.13853180      -3.48577501
F       -6.12330639      -8.83079901      -4.58343941
H       -1.36209875      -2.26545027       0.71031279
H       -2.77427750      -3.69376189      -0.71515899
H       -1.98391845      -1.10894385      -4.08230156
H       -0.57305943       0.31005492      -2.65515176
H       -4.21242068      -2.02216501      -4.90523160
H       -7.07769865      -5.64580430      -5.10812768
H       -8.48867247      -5.90964657      -7.08088954
H       -5.97605018      -3.17802094      -9.26423825
H       -4.50151578      -2.97291435      -7.31503684
H       -3.67232720      -7.07053808      -3.68195362
H       -4.74241675      -6.86326153      -5.07171361
H       -5.56562083      -5.42035713      -1.64847137
H       -7.45588673      -6.20518972      -0.29652974
H       -8.72314592      -8.23549897      -0.95640467
H       -8.06065933      -9.48781451      -3.00747799
C       -0.88136040       0.88136040       0.88136040
C       -2.24464350       0.61171505       0.98332442
C       -3.05042777       1.42341111       1.78628767
C       -2.50139161       2.50207451       2.49842711
C       -1.12747813       2.75799075       2.38373665
C       -0.32010254       1.95091990       1.57453994
C       -3.35961633       3.33954465       3.33622692
C       -3.01955514       4.06147468       4.50484909
C       -4.17432821       4.68991092       4.94722491
C       -4.34177468       5.57998624       6.10391869
C       -5.46729844       5.52942122       6.93493724
C       -5.59574634       6.39253324       8.03065222
C       -4.57713022       7.29235779       8.32547627
Br      -4.74111510       8.44543740       9.81318118
C       -3.43376405       7.33738562       7.53470933
C       -3.32134990       6.48822834       6.42952238
N       -5.13211193       4.32019538       4.02222098
N       -4.65467876       3.51061410       3.04974071
C       -6.52732552       4.74588108       3.91109171
C       -7.50733536       3.80219446       4.56945202
C       -7.30101507       2.41788530       4.67252981
C       -8.25859375       1.59458143       5.27770834
C       -9.44213126       2.13905123       5.76739681
C       -9.67520767       3.50649454       5.64744087
C       -8.71565442       4.31954723       5.04792006
F       -8.96317749       5.63260822       4.94175909
H       -2.69199088      -0.21899425       0.44423960
H       -4.11557921       1.21069271       1.85692646
H       -0.67345986       3.59816259       2.90354140
H        0.74080464       2.16975466       1.48920624
H       -2.05071162       4.10660461       4.98250106
H       -6.25876701       4.80557960       6.76728402
H       -6.48875711       6.34203600       8.64841546
H       -2.62494112       8.02619645       7.76717180
H       -2.42122958       6.54649090       5.82174649
H       -6.76018479       4.82273916       2.84189496
H       -6.59025721       5.75438423       4.33275045
H       -6.39449784       1.95469369       4.28525780
H       -8.07491450       0.52522485       5.35746685
H      -10.18507245       1.49650232       6.23347480
H      -10.59813852       3.94493040       6.01288290
C        0.88136040      -0.88136040       0.88136040
C        1.65606330      -0.30032276       1.88329691
C        2.46642285      -1.10859528       2.68510841
C        2.50279322      -2.50005356       2.49904646
C        1.71624457      -3.06695444       1.48600652
C        0.90965930      -2.25867483       0.67722826
C        3.35499081      -3.33085937       3.34953773
C        3.16994508      -4.67936495       3.73656886
C        4.23620150      -5.01902407       4.55623848
C        4.52148045      -6.31245329       5.19174587
C        5.01994505      -6.41581834       6.49589352
C        5.28091251      -7.66531198       7.07270733
C        5.00951476      -8.82722498       6.35822453
Br       5.34481062     -10.51372299       7.14120007
C        4.48156559      -8.75060172       5.07369170
C        4.24379066      -7.49994332       4.49536664
N        4.99919490      -3.86798108       4.60735231
N        4.48095296      -2.84814540       3.88593522
C        6.29557887      -3.64216769       5.24655176
C        6.19696172      -3.04886507       6.63315505
C        5.16258787      -2.19105094       7.03779139
C        5.13969235      -1.65846522       8.33272594
C        6.15913012      -1.95772868       9.23172051
C        7.20782564      -2.78423544       8.83708202
C        7.22112250      -3.31363171       7.54836750
F        8.24207953      -4.10498085       7.19048443
H        1.64248594       0.77362946       2.04837974
H        3.07343838      -0.64760287       3.46215713
H        1.73726195      -4.13800120       1.29990070
H        0.31430804      -2.71358266      -0.10973444
H        2.34711377      -5.32645276       3.46625077
H        5.19529669      -5.53320922       7.10312472
H        5.68376896      -7.71428916       8.08115045
H        4.25078346      -9.65383571       4.51369020
H        3.83733088      -7.46502220       3.48711389
H        6.86317028      -2.96140163       4.60024699
H        6.82231370      -4.60203401       5.25304418
H        4.35736135      -1.92131894       6.35576904
H        4.32324019      -1.00393987       8.63042614
H        6.14017692      -1.53968734      10.23518531
H        8.01675848      -3.01739162       9.52180172
