173
Properties=species:S:1:pos:R:3 pbc="F F F"
C        0.00000000       0.00000000       0.00000000
C        0.88136040       0.88136040      -0.88136040
C        0.40485155       2.11529034      -1.31954108
C        1.21134168       2.91781930      -2.13096557
C        2.49934621       2.49968559      -2.50286145
C        2.96197318       1.25502974      -2.05220261
C        2.15328323       0.44664172      -1.24563743
C        3.33064561       3.35405170      -3.35069060
C        4.74199263       3.44508766      -3.39879862
C        5.05722030       4.40400927      -4.35023447
C        6.38631499       4.84597756      -4.79338706
C        6.68164201       6.18778997      -5.06222493
C        7.96008669       6.57594822      -5.48289689
C        8.96718741       5.62441262      -5.60336424
C        8.70704867       4.29022372      -5.30858660
C        7.42303024       3.90588791      -4.91018247
N        3.82821046       4.82447040      -4.82184742
N        2.78431302       4.20051772      -4.23020283
C        3.52050822       5.76109150      -5.90269859
C        3.27161233       7.17555873      -5.43181079
C        2.72093050       7.49051131      -4.17998838
C        2.49680081       8.82275770      -3.81132501
C        2.79892269       9.85475340      -4.69490322
C        3.31920055       9.55809146      -5.95185107
C        3.54333609       8.23028430      -6.30950133
F        4.04284234       7.96908603      -7.52561643
H       -0.58714120       2.46178608      -1.04259135
H        0.83073369       3.87798824      -2.47447645
H        3.94526306       0.89050415      -2.33939664
H        2.52381266      -0.51940975      -0.91375336
H        5.45022591       2.89088721      -2.79870418
H        5.93619811       6.96575048      -4.92968204
H        8.15565527       7.62282563      -5.70072767
H        9.49245874       3.54180494      -5.38404569
H        7.24163116       2.85590553      -4.69193028
H        2.62517748       5.38603446      -6.41360697
H        4.34921315       5.71159413      -6.61658460
H        2.45642167       6.70823178      -3.46979587
H        2.07905087       9.04653252      -2.83202281
H        2.62034009      10.88781588      -4.40689359
H        3.54854443      10.35027566      -6.65713173
C       10.28537745       6.02413192      -6.02312548
C       11.38936161       6.35889684      -6.37467552
Br      13.17441062       6.90018339      -6.94310219
C       -0.88136040      -0.88136040      -0.88136040
C       -1.53743486      -1.97746162      -0.32478649
C       -2.33916642      -2.78612184      -1.13483829
C       -2.49856142      -2.50240556      -2.50092625
C       -1.83078084      -1.39509009      -3.04333460
C       -1.02169630      -0.58829569      -2.23557039
C       -3.34386455      -3.35836952      -3.33315384
C       -4.07995737      -3.01422065      -4.49170088
C       -4.73299740      -4.16189256      -4.91657409
C       -5.59929113      -4.33620289      -6.09018558
C       -6.76504261      -5.11067255      -6.05594175
C       -7.56955210      -5.25603435      -7.19334535
C       -7.23103543      -4.59482912      -8.36909972
C       -6.09626666      -3.79197666      -8.41761568
C       -5.28549596      -3.66848334      -7.28512132
N       -4.34833633      -5.12398987      -4.00220209
N       -3.51356488      -4.65382710      -3.04764159
C       -4.64560166      -6.55626824      -3.98242842
C       -5.83469684      -6.92071313      -3.12357187
C       -6.20969474      -6.20662044      -1.97511502
C       -7.31193326      -6.60844775      -1.21050251
C       -8.03946749      -7.73914908      -1.56996274
C       -7.66343582      -8.47542843      -2.69027883
C       -6.56819335      -8.06664864      -3.44827972
F       -6.22380806      -8.79254499      -4.52119176
H       -1.43195878      -2.21549168       0.73021424
H       -2.84421270      -3.64411155      -0.69487413
H       -1.91413027      -1.15950642      -4.10152716
H       -0.50345670       0.25987658      -2.67457614
H       -4.14400499      -2.03991710      -4.95589521
H       -7.08943362      -5.59959949      -5.14259751
H       -8.45993857      -5.87748662      -7.14178338
H       -5.83263913      -3.25804713      -9.32762311
H       -4.39946150      -3.04090667      -7.34909879
H       -3.75319745      -7.06887665      -3.60274481
H       -4.78535335      -6.86993956      -5.02209897
H       -5.65345284      -5.32695944      -1.65403704
H       -7.59290620      -6.03503546      -0.32966453
H       -8.89253131      -8.05042549      -0.97209277
H       -8.21249336      -9.36643158      -2.97702689
C       -8.06437495      -4.73293945      -9.53532044
C       -8.76229680      -4.84860686     -10.51203030
Br      -9.89077740      -5.03563127     -12.09128753
C       -0.88136040       0.88136040       0.88136040
C       -2.25405686       0.64847101       0.93715509
C       -3.05959354       1.46024151       1.74029150
C       -2.50128675       2.50215723       2.49844925
C       -1.11798637       2.72137890       2.42984026
C       -0.31054959       1.91435895       1.62065384
C       -3.35950414       3.34021794       3.33566583
C       -3.03321586       4.01890766       4.53375538
C       -4.18218387       4.66778209       4.96149808
C       -4.35792314       5.52948328       6.13827318
C       -5.50797046       5.48814618       6.93554027
C       -5.64373784       6.32349169       8.05170227
C       -4.60919497       7.18486427       8.40090503
C       -3.44263861       7.21902238       7.64419801
C       -3.32222622       6.39834973       6.51852467
N       -5.12284035       4.35203082       3.99965712
N       -4.64042929       3.55662481       3.01797948
C       -6.50175146       4.82081597       3.86173089
C       -7.52649993       3.88772713       4.46475478
C       -7.36221030       2.49568437       4.53353552
C       -8.35962737       1.68372600       5.08753015
C       -9.54106239       2.24820459       5.55931233
C       -9.73207235       3.62464259       5.47242815
C       -8.73313377       4.42614212       4.92384582
F       -8.94050489       5.74827203       4.84876788
H       -2.70879424      -0.15349196       0.36193395
H       -4.13189619       1.27649626       1.77480592
H       -0.65576050       3.53314548       2.98625787
H        0.75810876       2.10475102       1.57151400
H       -2.07769673       4.02258308       5.03953749
H       -6.31428257       4.79247653       6.72487154
H       -6.55529578       6.28149247       8.64242033
H       -2.62184330       7.87736772       7.91909835
H       -2.40363504       6.44762195       5.93820998
H       -6.70136125       4.93437430       2.78908335
H       -6.54849070       5.81847456       4.31042662
H       -6.45824745       2.01754746       4.15865441
H       -8.20843969       0.60768930       5.14147720
H      -10.31491890       1.61455818       5.98557249
H      -10.65249992       4.07913142       5.82432048
C       -4.74216038       8.03473933       9.55573514
C       -4.85351891       8.74650970      10.52290535
Br      -5.03357624       9.89738218      12.08673779
C        0.88136040      -0.88136040       0.88136040
C        1.66201790      -0.29948768       1.87817739
C        2.47235304      -1.10779237       2.67998114
C        2.50278938      -2.50006769       2.49903617
C        1.71029755      -3.06780088       1.49110709
C        0.90371038      -2.25952954       0.68232247
C        3.35506096      -3.33088021       3.34944674
C        3.16640857      -4.67721325       3.74225708
C        4.23446614      -5.01780975       4.55918815
C        4.51727653      -6.30990794       5.19849513
C        5.02026704      -6.41024954       6.50114033
C        5.27870996      -7.65854169       7.08168015
C        5.00025141      -8.82210019       6.37261267
C        4.46775023      -8.74831498       5.08979379
C        4.23249818      -7.49895129       4.50765115
N        5.00196909      -3.86947030       4.60308889
N        4.48484620      -2.85040560       3.87978177
C        6.30159585      -3.64614928       5.23655320
C        6.21044345      -3.04726982       6.62126857
C        5.18083634      -2.18404306       7.02655079
C        5.16483030      -1.64651004       8.31954318
C        6.18652111      -1.94623654       9.21582166
C        7.23060512      -2.77817283       8.82036515
C        7.23704812      -3.31245684       7.53361676
F        8.25366491      -4.10899314       7.17488676
H        1.65310137       0.77512118       2.03925605
H        3.08402553      -0.64617586       3.45299699
H        1.72658559      -4.13961145       1.30896681
H        0.30368745      -2.71514285      -0.10067404
H        2.34013601      -5.32220296       3.47747832
H        5.20122603      -5.52603173       7.10437287
H        5.68518223      -7.70524713       8.08877922
H        4.23146223      -9.65277062       4.53407652
H        3.82237051      -7.46628741       3.50080905
H        6.86929960      -2.96996471       4.58555460
H        6.82473898      -4.60796536       5.24468755
H        4.37406152      -1.91384026       6.34654754
H        4.35197394      -0.98779361       8.61783864
H        6.17292673      -1.52435696      10.21776587
H        8.04123390      -3.01180417       9.50291375
C        5.25321489     -10.10617662       6.97324335
C        5.46507180     -11.18159062       7.47627154
Br       5.80762651     -12.92044412       8.28962558
