186
Properties=species:S:1:pos:R:3 pbc="F F F"
C        1.79126442       1.79126442      -1.79126442
C        1.31475558       3.02519437      -2.22944510
C        2.12124570       3.82772332      -3.04086959
C        3.40925023       3.40958961      -3.41276547
C        3.87187721       2.16493376      -2.96210663
C        3.06318726       1.35654574      -2.15554146
C        4.24054963       4.26395572      -4.26059463
C        5.65189665       4.35499168      -4.30870264
C        5.96712433       5.31391329      -5.26013849
C        7.29621901       5.75588158      -5.70329108
C        7.59154604       7.09769399      -5.97212895
C        8.86999072       7.48585225      -6.39280092
C        9.87709143       6.53431665      -6.51326826
Br      11.60664655       7.05877560      -7.06402360
C        9.61695270       5.20012774      -6.21849063
C        8.33293427       4.81579194      -5.82008649
N        4.73811449       5.73437442      -5.73175145
N        3.69421704       5.11042175      -5.14010686
C        4.43041225       6.67099553      -6.81260262
C        4.18151635       8.08546275      -6.34171481
C        3.63083453       8.40041533      -5.08989241
C        3.40670484       9.73266172      -4.72122903
C        3.70882671      10.76465742      -5.60480724
C        4.22910458      10.46799549      -6.86175509
C        4.45324012       9.14018832      -7.21940535
F        4.95274637       8.87899005      -8.43552046
H        0.32276283       3.37169010      -1.95249537
H        1.74063772       4.78789226      -3.38438047
H        4.85516708       1.80040818      -3.24930067
H        3.43371668       0.39049427      -1.82365738
H        6.36012994       3.80079123      -3.70860820
H        6.84610213       7.87565451      -5.83958606
H        9.06555929       8.53272966      -6.61063170
H       10.40236276       4.45170896      -6.29394972
H        8.15153518       3.76580955      -5.60183431
H        3.53508150       6.29593848      -7.32351099
H        5.25911718       6.62149816      -7.52648863
H        3.36632570       7.61813581      -4.37969990
H        2.98895489       9.95643654      -3.74192684
H        3.53024412      11.79771991      -5.31679762
H        4.45844845      11.26017969      -7.56703575
C       -1.79126442      -1.79126442      -1.79126442
C       -2.93398592      -1.25448368      -2.38092544
C       -3.74231049      -2.06480363      -3.18272449
C       -3.41221121      -3.41098262      -3.40841148
C       -2.25837064      -3.93362168      -2.80692528
C       -1.45152109      -3.12594837      -1.99780499
C       -4.26866846      -4.24366388      -4.25276763
C       -3.90974947      -5.35767401      -5.04816749
C       -5.06553964      -5.80299534      -5.67264113
C       -5.22895639      -6.94801905      -6.57841624
C       -6.05087195      -6.89979054      -7.71070650
C       -6.18429004      -8.00989915      -8.55445469
C       -5.46450871      -9.17014651      -8.29002112
Br      -5.63012371     -10.66257224      -9.43674980
C       -4.61495663      -9.23026296      -7.19035148
C       -4.50292650      -8.12618815      -6.33969805
N       -6.04616934      -4.94415318      -5.21391783
N       -5.58010219      -4.00458883      -4.36005463
C       -7.48901751      -4.97097328      -5.45401960
C       -7.93468412      -4.08187960      -6.59213020
C       -7.28176649      -2.89161481      -6.94776096
C       -7.75755163      -2.10152286      -8.00152111
C       -8.90197568      -2.47793905      -8.69837664
C       -9.57810086      -3.64104904      -8.33970526
C       -9.09591636      -4.42398455      -7.29293288
F       -9.76480986      -5.53810921      -6.96433781
H       -3.20852213      -0.21493902      -2.22348715
H       -4.63661521      -1.64067161      -3.63562363
H       -1.98525388      -4.97731586      -2.94230619
H       -0.56651986      -3.55003700      -1.53131147
H       -2.92147979      -5.77906792      -5.16898166
H       -6.58783532      -5.99509215      -7.97841523
H       -6.84292482      -7.94891125      -9.41708459
H       -4.03565979     -10.12743131      -6.98493034
H       -3.83786930      -8.19915333      -5.48215640
H       -7.97938923      -4.64753067      -4.52761108
H       -7.76729715      -6.01627811      -5.62352870
H       -6.39344247      -2.55703022      -6.41368871
H       -7.23083024      -1.18783390      -8.26865413
H       -9.27072871      -1.86037093      -9.51366200
H      -10.47879687      -3.94209912      -8.86476791
C       -1.79126442       1.79126442       1.79126442
C       -1.20662794       2.59414207       2.76862503
C       -2.01601060       3.39581053       3.57801749
C       -3.41047769       3.40862545       3.41250217
C       -3.98092640       2.59430141       2.42368979
C       -3.17295287       1.78531985       1.61700173
C       -4.24189023       4.25607301       4.26713674
C       -5.49050616       4.85304660       3.97203822
C       -5.87442562       5.57279620       5.09395430
C       -7.10542938       6.34679358       5.30316873
C       -7.11502637       7.57935247       5.96699014
C       -8.30676597       8.29246662       6.14941129
C       -9.49791861       7.79215669       5.63460105
Br     -11.10347303       8.76114627       5.86482645
C       -9.50787454       6.58639357       4.94130296
C       -8.31851497       5.86872043       4.78157729
N       -4.84778809       5.36184017       5.99461210
N       -3.86263808       4.57205002       5.51005755
C       -4.73232734       5.79429198       7.38739106
C       -3.96187964       7.08251379       7.56430048
C       -2.92038955       7.48610805       6.71464467
C       -2.23192295       8.68357774       6.94509490
C       -2.55951197       9.48125941       8.03752000
C       -3.57107466       9.08118326       8.90659725
C       -4.25425067       7.89056446       8.66801865
F       -5.22270522       7.52499304       9.51955861
H       -0.12974402       2.60351649       2.91368779
H       -1.55330837       4.01621198       4.34339010
H       -5.05866373       2.56293948       2.28327272
H       -3.63260207       1.15284925       0.86241702
H       -6.04132572       4.78388310       3.04432054
H       -6.19769066       8.02657279       6.33707926
H       -8.28630784       9.23892043       6.68369238
H      -10.43156632       6.19545085       4.52100427
H       -8.35222923       4.92492585       4.24202396
H       -4.22669055       4.99082589       7.93701454
H       -5.74947267       5.87259910       7.78503219
H       -2.62537679       6.87880034       5.85998426
H       -1.43472347       8.98409726       6.26849754
H       -2.02059994      10.40858251       8.21557919
H       -3.83037776       9.68541632       9.76986982
C        1.79126442      -1.79126442       1.79126442
C        3.15517087      -1.89047250       1.52375168
C        3.95892749      -2.70240046       2.32851067
C        3.41033799      -3.41256512       3.40870219
C        2.03588391      -3.30026477       3.66276891
C        1.22794439      -2.49356139       2.85376868
C        4.26736609      -4.25565550       4.24207839
C        4.11562708      -4.59165687       5.60830702
C        5.18675038      -5.40386985       5.95055589
C        5.47210503      -6.03926126       7.24402539
C        6.76639819      -6.12410688       7.77086391
C        7.00417472      -6.73645188       9.00801727
C        5.93865236      -7.23866048       9.74736351
Br       6.25571424      -8.04957259      11.42415892
C        4.63983354      -7.13518971       9.26054782
C        4.41153904      -6.54233952       8.01493413
N        5.90997428      -5.51591518       4.77835089
N        5.36728316      -4.83195707       3.74550541
C        7.09789087      -6.32129929       4.49482023
C        8.39783638      -5.56514174       4.64571580
C        8.52625782      -4.18824029       4.40664416
C        9.76504281      -3.55013339       4.54541940
C       10.89393218      -4.28143535       4.90292385
C       10.78955846      -5.65343320       5.11586350
C        9.55264732      -6.28018293       4.98000354
F        9.47714396      -7.60220484       5.18790807
H        3.60321835      -1.34829232       0.69543763
H        5.02252402      -2.77991390       2.11047253
H        1.57428576      -3.85358214       4.47700802
H        0.16300248      -2.42606625       3.05879961
H        3.32824319      -4.26702919       6.27425699
H        7.61638881      -5.69771261       7.24724128
H        8.02189164      -6.80285719       9.38417182
H        3.79876507      -7.51021796       9.83903842
H        3.38824418      -6.47914995       7.65178491
H        7.00686815      -6.68406806       3.46359476
H        7.05856581      -7.19506138       5.15347677
H        7.66804601      -3.58739757       4.10871782
H        9.84148937      -2.47980876       4.36602014
H       11.85490501      -3.78353937       5.00631727
H       11.66243309      -6.24018665       5.38304416
C       -0.00445707       0.01189536      -1.78238275
H       -0.66409135       0.67374010      -2.43557963
H        0.65740317      -0.63156657      -2.45157240
C       -0.90989263      -0.90692880      -0.91072765
C        0.90977584       0.90977584      -0.90977584
C       -0.00465871       1.77757030       0.00794375
H       -0.66225468       2.44313916      -0.64384735
H        0.64322798       2.43503045       0.67728295
C       -1.78241447       0.00034974      -0.00472694
H       -2.45427497      -0.65498947       0.64260836
H       -2.43311707       0.67328779      -0.65473579
C       -0.91132561       0.90220522       0.91563759
C       -0.01476271      -0.02253852       1.78660255
H       -0.67934791      -0.69751639       2.42135241
H        0.63392994       0.61504881       2.47327442
C        0.01484550      -1.77751727      -0.01636693
H        0.67870853      -2.42144646      -0.68295456
H       -0.62264859      -2.45592969       0.64226336
C        1.78714474       0.01002794       0.00389507
H        2.44202412       0.67113390       0.66197326
H        2.45385902      -0.65136977      -0.64189061
C        0.91606151      -0.90478549       0.90901405
