165
Properties=species:S:1:pos:R:3 pbc="F F F"
C        0.00000000       0.00000000       0.00000000
C        0.88311036       0.88311036      -0.88311036
C        0.31199860       1.60035766      -1.92132618
C        1.12718796       2.41350202      -2.69409215
C        2.50422118       2.50809113      -2.42708375
C        3.12004109       1.77862599      -1.39974174
C        2.25835451       0.96522446      -0.63080645
C        4.57257973       1.81567575      -1.05123646
C        5.18173292       1.15411496       0.02108995
C        6.56035688       1.45446963       0.01028363
N        6.81475803       2.29923990      -0.98687198
N        5.65141790       2.44529659      -1.66539583
C        5.76564015       3.25526576      -2.87545278
C        6.67047041       2.67584249      -3.93990025
C        6.88426623       1.30073123      -4.11895093
C        7.71208847       0.83896196      -5.14712380
C        8.31936121       1.73996792      -6.02156294
C        8.09564266       3.10556172      -5.87148278
C        7.27510229       3.55809838      -4.84234947
F        7.05283654       4.87610884      -4.73055486
C        7.63043758       0.97492428       0.89296969
C        7.36092745       0.14413086       1.99121010
C        8.39822832      -0.32360902       2.80565948
C        9.71796587       0.03252981       2.53348015
C        9.99587771       0.85867983       1.44793048
Br      11.78471657       1.34148726       1.07182316
C        8.96588767       1.32800174       0.63318112
H       -0.75256278       1.54170593      -2.12861810
H        0.69674964       2.99168912      -3.50888557
H        3.03092844       3.19822616      -3.06349995
H        2.64286185       0.37694724       0.19623425
H        4.68910605       0.51640566       0.73631758
H        6.14633068       4.22641774      -2.53660027
H        4.80248407       3.42497619      -3.32789011
H        6.42849884       0.57263001      -3.45080040
H        7.88660261      -0.22868066      -5.26150806
H        8.96380878       1.37702407      -6.81804144
H        8.55268237       3.82097528      -6.54712455
H        6.34474708      -0.15449037       2.23229727
H        8.17528957      -0.96844313       3.65243083
H       10.51853403      -0.33667206       3.16900491
H        9.20067387       1.96882582      -0.21487242
C       -0.88311036      -0.88311036      -0.88311036
C       -2.19008193      -1.14024322      -0.50335727
C       -2.98038850      -1.92335779      -1.33103584
C       -2.46483202      -2.44346545      -2.53109860
C       -1.14006172      -2.22320260      -2.93514450
C       -0.36658090      -1.41758311      -2.07022142
C       -0.51111423      -2.74037421      -4.18800350
C        0.78383843      -2.45995336      -4.63864301
C        0.98853501      -3.12925265      -5.86382524
N       -0.12938189      -3.76727753      -6.20421049
N       -0.98809876      -3.60484069      -5.16917086
C       -2.24110142      -4.34128609      -5.31397118
C       -2.08846802      -5.84552600      -5.35221913
C       -1.05728496      -6.54235550      -4.70430793
C       -1.00020807      -7.93855231      -4.75941386
C       -1.98087138      -8.65770068      -5.44232002
C       -3.02381014      -7.98082577      -6.06805125
C       -3.07089960      -6.59085071      -6.01379983
F       -4.09769208      -5.95958071      -6.60222746
C        2.18677946      -3.18994863      -6.70922300
C        3.34459497      -2.46114880      -6.39729438
C        4.48572751      -2.55269607      -7.20199127
C        4.48490609      -3.37340424      -8.32851738
C        3.34034059      -4.09851816      -8.64844949
Br       3.33522108      -5.21646305     -10.17313871
C        2.20016852      -4.01071085      -7.85016596
H       -2.60029595      -0.73418541       0.41672012
H       -4.01219649      -2.13001224      -1.05511559
H       -3.17789685      -3.00237672      -3.11238097
H        0.66500180      -1.17948527      -2.30909137
H        1.51068526      -1.84213632      -4.13774307
H       -2.68207522      -3.97736215      -6.24991132
H       -2.92963466      -4.10679630      -4.51891941
H       -0.27473213      -6.01011296      -4.16708416
H       -0.18332718      -8.46525148      -4.27085136
H       -1.93160195      -9.74269167      -5.48458067
H       -3.80028104      -8.52361813      -6.59688303
H        3.38136340      -1.81273042      -5.52659243
H        5.37687025      -1.98382651      -6.94745934
H        5.37576074      -3.44133152      -8.94728630
H        1.31521684      -4.58836469      -8.11122426
C       -0.88311036       0.88311036       0.88311036
C       -0.52074213       1.11286047       2.20007982
C       -1.32286739       1.93622384       2.97569090
C       -2.47866932       2.52604637       2.43468037
C       -2.88842629       2.29678806       1.11319447
C       -2.04492226       1.45743161       0.35203156
C       -4.10111164       2.87723687       0.46114344
C       -4.47429818       2.71881153      -0.87835178
C       -5.67153699       3.43212428      -1.09911838
N       -6.02328622       4.05224984       0.02533385
N       -5.13796980       3.65398523       0.97015529
C       -5.43733717       4.14697335       2.31204817
C       -6.74477283       3.65212626       2.88931406
C       -7.32389448       2.41626654       2.56378737
C       -8.52121431       2.01337175       3.16358818
C       -9.14422355       2.82686325       4.10980528
C       -8.56750433       4.04395804       4.46122479
C       -7.37874646       4.44093464       3.85586904
F       -6.82686012       5.60576367       4.22687645
C       -6.48508728       3.54298294      -2.31567805
C       -6.08388071       2.95480405      -3.52483656
C       -6.88634984       3.04986026      -4.66725027
C       -8.09981592       3.73363001      -4.61643040
C       -8.50577846       4.32323812      -3.42238951
Br     -10.15284651       5.24842513      -3.34689096
C       -7.70973832       4.23189725      -2.28092729
H        0.37593935       0.66995196       2.62374863
H       -1.05116357       2.13623703       4.00992372
H       -3.00169676       3.17671450       3.11424328
H       -2.27296159       1.23639299      -0.68577974
H       -3.94495121       2.14580117      -1.62155825
H       -5.44834624       5.23990063       2.22110182
H       -4.65788975       3.88790527       3.00955535
H       -6.86481683       1.76093670       1.82617573
H       -8.97079990       1.06240167       2.88622845
H      -10.07588204       2.51097110       4.57202114
H       -9.03314762       4.68627804       5.20135653
H       -5.14524419       2.41338886      -3.60067360
H       -6.56413006       2.58760527      -5.59731973
H       -8.71887125       3.80110615      -5.50712034
H       -8.04418810       4.69395278      -1.35376878
C        0.88311036      -0.88311036       0.88311036
C        2.12317748      -1.29067517       0.41982979
C        2.91753396      -2.07069513       1.24655304
C        2.47273944      -2.43804566       2.52861096
C        1.21414277      -2.06337398       3.02089208
C        0.43494593      -1.26571584       2.15372366
C        0.66195741      -2.41291196       4.36462257
C       -0.55768979      -1.97737236       4.89507537
C       -0.70432257      -2.51927183       6.18959362
N        0.38241153      -3.22660979       6.49184859
N        1.15272904      -3.23183562       5.37754566
C        2.34717146      -4.06576079       5.48342644
C        2.07243150      -5.54093365       5.67284800
C        0.93087127      -6.19191820       5.18115892
C        0.76160230      -7.56727742       5.36929452
C        1.73687850      -8.31357806       6.03043553
C        2.88637624      -7.68534510       6.50096582
C        3.04529015      -6.31516661       6.31509339
F        4.17148574      -5.73383886       6.75417565
C       -1.82040520      -2.39780605       7.13499131
C       -2.93644999      -1.59432832       6.85596987
C       -4.00221931      -1.51216627       7.75901286
C       -3.96679935      -2.23154393       8.95227095
C       -2.86285258      -3.02946892       9.24001072
Br      -2.81154122      -4.01058190      10.85534000
C       -1.79776061      -3.11471243       8.34375646
H        2.47963707      -1.00316874      -0.56504457
H        3.89841539      -2.39406816       0.90484077
H        3.18665857      -3.00927484       3.09672113
H       -0.54647481      -0.91429018       2.45575948
H       -1.27290989      -1.33965151       4.40245251
H        2.90161542      -3.66640748       6.34132580
H        2.97682588      -3.96358280       4.61494169
H        0.14981940      -5.63703146       4.66507839
H       -0.13830690      -8.05577501       5.00196190
H        1.60041074      -9.38197063       6.17649292
H        3.65973107      -8.25084620       7.01020493
H       -2.99848940      -1.02101006       5.93543879
H       -4.86187482      -0.88709917       7.52919125
H       -4.79939085      -2.16468404       9.64756388
H       -0.94438694      -3.74737432       8.58138473
