194
Properties=species:S:1:pos:R:3 pbc="F F F"
C        1.79301439       1.79301439      -1.79301439
C        1.22190262       2.51026168      -2.83123020
C        2.03709198       3.32340605      -3.60399617
C        3.41412521       3.41799516      -3.33698777
C        4.02994512       2.68853002      -2.30964576
C        3.16825854       1.87512849      -1.54071048
C        5.48248375       2.72557978      -1.96114048
C        6.09163694       2.06401898      -0.88881408
C        7.47026091       2.36437365      -0.89962040
N        7.72466206       3.20914392      -1.89677601
N        6.56132193       3.35520061      -2.57529985
C        6.67554418       4.16516979      -3.78535680
C        7.58037443       3.58574651      -4.84980428
C        7.79417026       2.21063525      -5.02885495
C        8.62199250       1.74886599      -6.05702783
C        9.22926524       2.64987195      -6.93146697
C        9.00554669       4.01546574      -6.78138680
C        8.18500632       4.46800240      -5.75225349
F        7.96274056       5.78601287      -5.64045889
C        8.54034161       1.88482830      -0.01693433
C        8.27083147       1.05403488       1.08130608
C        9.30813234       0.58629501       1.89575545
C       10.62786989       0.94243384       1.62357613
C       10.90578174       1.76858385       0.53802645
C        9.87579169       2.23790576      -0.27672290
H        0.15734124       2.45160995      -3.03852212
H        1.60665366       3.90159314      -4.41878959
H        3.94083246       4.10813018      -3.97340397
H        3.55276588       1.28685126      -0.71366978
H        5.59901007       1.42630969      -0.17358645
H        7.05623470       5.13632177      -3.44650429
H        5.71238809       4.33488022      -4.23779413
H        7.33840287       1.48253403      -4.36070442
H        8.79650664       0.68122336      -6.17141209
H        9.87371280       2.28692810      -7.72794546
H        9.46258639       4.73087930      -7.45702857
H        7.25465111       0.75541365       1.32239324
H        9.08519359      -0.05853911       2.74252681
H       11.42843805       0.57323197       2.25910088
H       10.11057789       2.87872984      -1.12477644
C       12.26824816       2.13631341       0.25156488
C       13.40931378       2.44428691       0.01165332
Br      15.25432039       2.94225401      -0.37626339
C       -1.79301439      -1.79301439      -1.79301439
C       -2.47205039      -2.86106850      -1.23027561
C       -3.28618429      -3.63380928      -2.04450063
C       -3.41979019      -3.33712298      -3.41219497
C       -2.72935629      -2.27860354      -4.02016107
C       -1.91376694      -1.51076850      -3.15956206
C       -2.80915473      -1.89733395      -5.46271533
C       -2.18747645      -0.79563029      -6.06136327
C       -2.52029877      -0.78147560      -7.43248059
N       -3.34743570      -1.79230117      -7.69084511
N       -3.44985166      -2.50103585      -6.54093488
C       -4.23390268      -3.72708015      -6.66508793
C       -3.65158594      -4.75603267      -7.60830661
C       -2.27816776      -4.89720001      -7.85829270
C       -1.81244775      -5.89449886      -8.72093971
C       -2.70706580      -6.77579630      -9.32774205
C       -4.07006015      -6.66358751      -9.06875157
C       -4.52674877      -5.66493887      -8.21357458
F       -5.84132890      -5.58982542      -7.95805800
C       -2.08711160       0.13709019      -8.49208283
C       -1.27593844       1.24825891      -8.21588074
C       -0.85217843       2.09758062      -9.24407409
C       -1.23325959       1.84780497     -10.56127298
C       -2.04028802       0.74962644     -10.84567756
C       -2.46579660      -0.09986249      -9.82476126
H       -2.38320707      -3.09164868      -0.17261757
H       -3.83479853      -4.47197054      -1.62026733
H       -4.10727828      -3.97737667      -3.93771166
H       -1.35425787      -0.66119619      -3.53783285
H       -1.55503408      -0.07706557      -5.56680656
H       -5.22149056      -3.40271295      -7.01485724
H       -4.37000200      -4.20575431      -5.70930614
H       -1.55516618      -4.22267119      -7.40380396
H       -0.74689680      -5.97928547      -8.92295982
H       -2.34114006      -7.54815939      -9.99928691
H       -4.78023694      -7.34527111      -9.52498622
H       -0.95885971       1.47266004      -7.20147185
H       -0.22211326       2.95406919      -9.01608361
H       -0.89816697       2.51043547     -11.35483764
H       -3.09210671      -0.95726086     -10.06471662
C       -2.43363999       0.48629552     -12.20565221
C       -2.76307226       0.26575587     -13.34463098
Br      -3.29573639      -0.09083809     -15.18626332
C       -1.79301439       1.79301439       1.79301439
C       -2.55174376       1.21454251       2.79710823
C       -3.32642295       2.03655670       3.60151455
C       -3.33916977       3.42811108       3.40182728
C       -2.60228935       4.04524667       2.38058487
C       -1.82168384       3.17774114       1.58467252
C       -2.56206231       5.51149642       2.09564529
C       -1.76886657       6.14400541       1.13159803
C       -2.01435522       7.53236417       1.18753557
N       -2.88324520       7.78248579       2.16485099
N       -3.27011606       6.57641836       2.64528797
C       -4.32088479       6.64791589       3.65727009
C       -5.63309041       7.21711718       3.16571763
C       -6.08494764       7.10675665       1.84195618
C       -7.32611173       7.63242990       1.46934469
C       -8.14050734       8.25506978       2.41502702
C       -7.71611774       8.34894538       3.73733610
C       -6.47711917       7.82853165       4.09961139
F       -6.09803716       7.90737855       5.38379661
C       -1.46846247       8.61421679       0.35942498
C       -0.49668638       8.36972101      -0.62284711
C       -0.00768768       9.41079380      -1.41980958
C       -0.48314850      10.70936022      -1.24578112
C       -1.44524060      10.96315206      -0.27205353
C       -1.93577669       9.92939801       0.52524566
H       -2.54025608       0.14161289       2.96560434
H       -3.92295396       1.60286365       4.40121879
H       -3.94361412       3.97002230       4.10873018
H       -1.20553916       3.56719296       0.78055479
H       -1.08663704       5.65927769       0.45299147
H       -3.90765204       7.27423578       4.45717293
H       -4.52754871       5.67820320       4.07931053
H       -5.47116438       6.63070599       1.07977096
H       -7.65498262       7.55916268       0.43499679
H       -9.10353342       8.66425244       2.12080051
H       -8.33954861       8.82230545       4.48864021
H       -0.10440626       7.37015840      -0.78689314
H        0.74399179       9.20681246      -2.17869300
H       -0.10045916      11.51232145      -1.87021146
H       -2.69183765      10.14373790       1.27850863
C       -1.94135338      12.30283963      -0.09119633
C       -2.35684783      13.42482797       0.06027157
Br      -3.02866721      15.23898823       0.30518236
C        1.79301439      -1.79301439       1.79301439
C        3.16608576      -1.61098515       1.78632360
C        3.94553410      -2.40618358       2.61277653
C        3.35282552      -3.37546184       3.44082077
C        1.96908812      -3.60311987       3.45591291
C        1.20683338      -2.77177729       2.60548683
C        1.25864074      -4.61218886       4.29837442
C       -0.12691185      -4.79181748       4.37956437
C       -0.39257180      -5.83464042       5.29218634
N        0.75706558      -6.26991091       5.80360550
N        1.73859266      -5.60223256       5.15099717
C        3.08845090      -6.03675625       5.50086363
C        3.40277987      -7.47182532       5.14132003
C        2.81602608      -8.15333211       4.06430227
C        3.18130150      -9.47181739       3.77476743
C        4.15013218     -10.11932868       4.54114329
C        4.75901607      -9.44667480       5.59670836
C        4.38624676      -8.13650293       5.88251252
F        5.00292377      -7.49815518       6.88813337
C       -1.67492799      -6.42843536       5.68859687
C       -2.89596015      -5.92740723       5.21211319
C       -4.10669241      -6.52391100       5.58145331
C       -4.11320565      -7.62849697       6.43143628
C       -2.90738672      -8.13165602       6.91206983
C       -1.69786970      -7.54080353       6.54748653
H        3.63204630      -0.85766191       1.15776511
H        5.02513270      -2.27321902       2.62868468
H        4.04880480      -3.90563633       4.06792549
H        0.12630878      -2.86424770       2.56273044
H       -0.87236144      -4.23527123       3.83599641
H        3.16671301      -5.88771958       6.58462817
H        3.83524016      -5.41596528       5.03385700
H        2.05397005      -7.67742026       3.45025101
H        2.70296939      -9.99595338       2.95021932
H        4.42958453     -11.14489239       4.31410944
H        5.52065457      -9.93113850       6.19870120
H       -2.92861197      -5.06901925       4.54726424
H       -5.04559747      -6.12650798       5.20321716
H       -5.05730554      -8.08799383       6.71188085
H       -0.76347634      -7.94975637       6.92780415
C       -2.90960142      -9.27464461       7.78795349
C       -2.91145624     -10.23189756       8.52150605
Br      -2.91445531     -11.77969460       9.70759851
C       -0.00445707       0.01189536      -1.78238275
H       -0.66409135       0.67374010      -2.43557963
H        0.65740317      -0.63156657      -2.45157240
C       -0.90989263      -0.90692880      -0.91072765
C        0.90977584       0.90977584      -0.90977584
C       -0.00465871       1.77757030       0.00794375
H       -0.66225468       2.44313916      -0.64384735
H        0.64322798       2.43503045       0.67728295
C       -1.78241447       0.00034974      -0.00472694
H       -2.45427497      -0.65498947       0.64260836
H       -2.43311707       0.67328779      -0.65473579
C       -0.91132561       0.90220522       0.91563759
C       -0.01476271      -0.02253852       1.78660255
H       -0.67934791      -0.69751639       2.42135241
H        0.63392994       0.61504881       2.47327442
C        0.01484550      -1.77751727      -0.01636693
H        0.67870853      -2.42144646      -0.68295456
H       -0.62264859      -2.45592969       0.64226336
C        1.78714474       0.01002794       0.00389507
H        2.44202412       0.67113390       0.66197326
H        2.45385902      -0.65136977      -0.64189061
C        0.91606151      -0.90478549       0.90901405
