194
Properties=species:S:1:pos:R:3 pbc="F F F"
F        5.50573968       0.46724624       1.15933807
C        6.07108725       0.46639110      -0.05470975
C        7.35967409       0.96130379      -0.21023536
C        7.94934970       0.95160780      -1.47235190
C        7.24327651       0.45048965      -2.56958914
C        5.93782852      -0.04547092      -2.41675963
C        5.36099814      -0.04053165      -1.13848325
C        5.19132932      -0.62994584      -3.58935150
N        4.97305629       0.32035852      -4.67781604
N        5.62230168       0.08920823      -5.84215719
C        5.22965668       1.06804193      -6.66765607
C        4.32548417       1.93082007      -6.00158928
C        4.15894419       1.43417483      -4.71979471
C        3.36660370       1.99858926      -3.62407545
C        3.43017692       3.37794840      -3.36944694
C        2.68680494       3.95552526      -2.33690350
C        1.87244869       3.15784160      -1.53708076
C        1.79145774       1.79145774      -1.79145774
C        2.51181948       1.21513127      -2.84101953
C        5.72538520       1.15877168      -8.04428442
C        5.03382058       1.90079638      -9.01482361
C        5.51294366       1.98442501     -10.32568091
C        6.68983589       1.32883471     -10.68182500
C        7.38143719       0.58892831      -9.72537664
C        6.90687093       0.49911030      -8.41653277
H        7.89568127       1.34517323       0.65182174
H        8.96027989       1.32942213      -1.60378157
H        7.72065234       0.44253970      -3.54919712
H        4.36186139      -0.42922381      -0.96456875
H        4.21480162      -1.03130097      -3.30419157
H        5.76507855      -1.47617002      -3.98896647
H        3.85234344       2.81767846      -6.39940367
H        4.06957011       4.01834582      -3.97254268
H        2.74826746       5.02624420      -2.15615868
H        1.30718894       3.60841731      -0.72502093
H        2.39017517       0.15555155      -3.04458344
H        4.10611624       2.41138055      -8.76982176
H        4.96424198       2.55763039     -11.06902860
H        7.05659798       1.39731788     -11.70261927
H        7.45590039      -0.08311914      -7.67923242
C        8.59830565      -0.08801173     -10.09223265
C        9.61743299      -0.65494902     -10.39947455
Br      11.26527570      -1.57163865     -10.89625872
F       -5.44470454      -0.69234800       1.32340469
C       -6.05078072      -0.67076987       0.12936249
C       -7.32692168      -1.20387924      -0.00041233
C       -7.95922628      -1.17271582      -1.24136729
C       -7.30780262      -0.61199379      -2.34355889
C       -6.01494574      -0.07717487      -2.21699662
C       -5.39507836      -0.10455631      -0.95931507
C       -5.32845158       0.57066783      -3.39295123
N       -5.11619396      -0.33530083      -4.51973606
N       -5.81196388      -0.08817908      -5.65352413
C       -5.41563742      -1.02536632      -6.52435094
C       -4.46139501      -1.87832186      -5.91817665
C       -4.26775243      -1.41876676      -4.62639453
C       -3.42041168      -1.99164729      -3.57720944
C       -3.42982886      -3.38000654      -3.36773686
C       -2.63311924      -3.96562191      -2.38049255
C       -1.81870888      -3.16744102      -1.58122115
C       -1.79145774      -1.79145774      -1.79145774
C       -2.56572119      -1.20574760      -2.79650148
C       -5.95469267      -1.08754700      -7.88620163
C       -5.27251720      -1.77323819      -8.90368519
C       -5.79298012      -1.82992586     -10.20014360
C       -7.00226254      -1.20341517     -10.49481788
C       -7.68488467      -0.51937722      -9.49148024
C       -7.16924579      -0.45659596      -8.19667225
H       -7.82033781      -1.63395059       0.86525565
H       -8.96105725      -1.58019818      -1.35222817
H       -7.81825737      -0.58805254      -3.30607925
H       -4.40393927       0.31199132      -0.80525839
H       -4.35652549       0.99543170      -3.12659842
H       -5.94302455       1.40956507      -3.74441552
H       -3.97312998      -2.73497783      -6.36131776
H       -4.06795316      -4.02159793      -3.97090753
H       -2.65310558      -5.04318286      -2.23438190
H       -1.21159996      -3.62500257      -0.80402465
H       -2.48603078      -0.13651303      -2.96776635
H       -4.32070140      -2.25973028      -8.70688687
H       -5.25133038      -2.35933153     -10.98023906
H       -7.40111341      -1.25069912     -11.50472260
H       -7.71172595       0.08201159      -7.42229930
C       -8.93516611       0.12745086      -9.79481131
C       -9.98227682       0.66916939     -10.04885109
Br     -11.67536628       1.54508242     -10.45961191
F        1.72156815       1.32374170       5.21147429
C        1.34835126       2.60379970       5.33673966
C        1.23511833       3.16314061       6.60319096
C        0.85515512       4.49730786       6.73115666
C        0.58753018       5.26001249       5.59087299
C        0.69554520       4.69578199       4.30888043
C        1.09044953       3.35500144       4.19439783
C        0.45337143       5.52869636       3.07541005
N       -0.89851834       6.07770145       2.99501106
N       -1.03005796       7.41991031       3.10369883
C       -2.34025043       7.66036683       2.96473743
C       -3.03934951       6.44346543       2.77507859
C       -2.09826972       5.42777882       2.78686519
C       -2.32131216       3.98320534       2.68475091
C       -3.35896781       3.39391219       3.42469225
C       -3.60693264       2.02077604       3.35152503
C       -2.81315517       1.21388306       2.54033281
C       -1.79145774       1.79145774       1.79145774
C       -1.55880306       3.16844654       1.84072067
C       -2.88349046       9.02067169       3.02427914
C       -4.14435606       9.32041615       2.48466836
C       -4.65723565      10.61967576       2.54613817
C       -3.91684167      11.63454017       3.14911375
C       -2.66401178      11.34613833       3.68559203
C       -2.14545239      10.05240914       3.62465248
H        1.44826755       2.55847051       7.47882980
H        0.77100768       4.94715146       7.71733982
H        0.29871072       6.30440261       5.70669727
H        1.20609819       2.87754772       3.22575681
H        0.63568740       4.97066980       2.15270981
H        1.16042165       6.36835447       3.06994219
H       -4.10529711       6.31249660       2.65163185
H       -3.98310998       4.00224771       4.07510092
H       -4.41637979       1.58304680       3.93124375
H       -2.99941894       0.14362296       2.49758528
H       -0.78644554       3.59557541       1.20828921
H       -4.73858484       8.55252508       1.99620862
H       -5.63262368      10.83939329       2.11888400
H       -4.32092702      12.64251133       3.19309678
H       -1.16500294       9.84059051       4.04642022
C       -1.89863279      12.39403334       4.30986043
C       -1.25762789      13.27164542       4.83268522
Br      -0.22117717      14.69066991       5.67804868
F       -0.01332599       0.76657106       5.59354489
C        0.03832200      -0.48403445       6.06983166
C        0.45119662      -0.70188054       7.37813608
C        0.49599273      -2.00277370       7.87454296
C        0.13117997      -3.07572498       7.05645035
C       -0.28133797      -2.85934966       5.73110554
C       -0.33300561      -1.54369982       5.24825553
C       -0.72045191      -4.01006631       4.86112058
N        0.32309200      -5.00873303       4.63940582
N        0.13596771      -6.23259483       5.18510456
C        1.20018956      -6.95441507       4.81075005
C        2.07152981      -6.16199305       4.02437068
C        1.49168947      -4.90961119       3.91161305
C        2.02562800      -3.71950664       3.24413377
C        3.37360385      -3.37347299       3.43049542
C        3.92198162      -2.24900155       2.80825054
C        3.12531503      -1.44791991       1.99413611
C        1.79145774      -1.79145774       1.79145774
C        1.24724908      -2.93101330       2.38970789
C        1.36024242      -8.35493195       5.21326693
C        2.22114934      -9.21498874       4.51330250
C        2.37030300     -10.54932848       4.90341811
C        1.66210713     -11.03962578       5.99876268
C        0.80437820     -10.19343627       6.69792767
C        0.64889962      -8.86188436       6.31173002
H        0.72935504       0.14182662       8.00150435
H        0.81022027      -2.18378455       8.89947877
H        0.16413332      -4.08696050       7.46129535
H       -0.66212416      -1.32210315       4.23722735
H       -1.07224221      -3.68044663       3.87948779
H       -1.57224506      -4.51113070       5.33898936
H        3.01738193      -6.45882411       3.59321953
H        4.01122987      -3.97669449       4.07253425
H        4.96877055      -1.99813549       2.96376430
H        3.55157508      -0.56529809       1.52375401
H        0.21753748      -3.19920026       2.17357242
H        2.77595735      -8.86448317       3.64687802
H        3.03588175     -11.20626130       4.34875792
H        1.78204679     -12.07798529       6.29650305
H       -0.02521663      -8.21162978       6.86560052
C        0.07293515     -10.69894482       7.83064660
C       -0.53964841     -11.12230822       8.77929870
Br      -1.53014421     -11.80685105      10.31318892
C       -0.00445707       0.01189536      -1.78238275
H       -0.66409135       0.67374010      -2.43557963
H        0.65740317      -0.63156657      -2.45157240
C       -0.90989263      -0.90692880      -0.91072765
C        0.90977584       0.90977584      -0.90977584
C       -0.00465871       1.77757030       0.00794375
H       -0.66225468       2.44313916      -0.64384735
H        0.64322798       2.43503045       0.67728295
C       -1.78241447       0.00034974      -0.00472694
H       -2.45427497      -0.65498947       0.64260836
H       -2.43311707       0.67328779      -0.65473579
C       -0.91132561       0.90220522       0.91563759
C       -0.01476271      -0.02253852       1.78660255
H       -0.67934791      -0.69751639       2.42135241
H        0.63392994       0.61504881       2.47327442
C        0.01484550      -1.77751727      -0.01636693
H        0.67870853      -2.42144646      -0.68295456
H       -0.62264859      -2.45592969       0.64226336
C        1.78714474       0.01002794       0.00389507
H        2.44202412       0.67113390       0.66197326
H        2.45385902      -0.65136977      -0.64189061
C        0.91606151      -0.90478549       0.90901405
