173
Properties=species:S:1:pos:R:3 pbc="F F F"
C        0.00000000       0.00000000       0.00000000
C        0.88160991       0.88160991      -0.88160991
C        2.14478485       1.26294727      -0.43626669
C        2.95616043       2.06676371      -1.24503379
C        2.51317901       2.49678068      -2.50578965
C        1.23296447       2.10211749      -2.93157958
C        0.42004406       1.29865784      -2.12588565
C        3.35847732       3.33195429      -3.37028827
C        4.67276909       3.80496405      -3.13658977
C        5.05134178       4.55036089      -4.24540948
C        6.31373326       5.27536430      -4.45584788
C        6.96512196       5.33160394      -5.69378397
C        8.17502024       6.01734227      -5.84963160
C        8.77239879       6.62581170      -4.75150227
C        8.16729486       6.55826855      -3.50283224
C        6.94309366       5.89472626      -3.36117925
N        3.95772048       4.46942482      -5.08414550
C        3.74289389       5.07455266      -6.39853304
C        4.27660679       4.24462790      -7.54974086
C        4.66561756       4.89514377      -8.73419443
C        5.21272696       4.17671251      -9.80208971
C        5.36032440       2.79532364      -9.70776956
C        4.94080471       2.14109358      -8.55764781
F        5.07877335       0.81177108      -8.46822714
C        4.38993813       2.84517981      -7.48963840
N        2.92862120       3.76307176      -4.56235844
H        2.50997475       0.94004026       0.53503170
H        3.93647721       2.34625848      -0.87009182
H        0.85897824       2.41911748      -3.90416240
H       -0.56423752       1.00675124      -2.48298626
H        5.28493354       3.62672826      -2.26532093
H        6.57544311       4.81372169      -6.56007836
H        8.64854791       6.04962437      -6.82967812
H        8.63407203       7.01148600      -2.63455148
H        6.48759868       5.85907503      -2.37166161
H        4.21061132       6.06428685      -6.37153680
H        2.66254577       5.21920447      -6.52681612
H        4.56423814       5.97582726      -8.82703567
H        5.52638199       4.69531276     -10.70424090
H        5.79332952       2.22343994     -10.52230536
H        4.07551474       2.28259590      -6.61418962
C       10.02957768       7.31058284      -4.90703270
C       11.08246501       7.88407867      -5.03728943
Br      12.78489476       8.81137293      -5.24790356
C       -0.88160991      -0.88160991      -0.88160991
C       -0.41535282      -1.30496871      -2.12367728
C       -1.21996525      -2.11713298      -2.93085971
C       -2.49734834      -2.51374147      -2.50465952
C       -2.94734675      -2.07043711      -1.24887768
C       -2.14554422      -1.25915862      -0.43988471
C       -3.34878714      -3.37515569      -3.33677705
C       -3.06807025      -3.94263772      -4.60361495
C       -4.17913536      -4.68352296      -4.98445383
C       -4.38039229      -5.42697435      -6.23757880
C       -5.02967800      -6.66596679      -6.29486509
C       -5.18581495      -7.35112380      -7.50505536
C       -4.65501231      -6.81968530      -8.67501515
C       -3.97560900      -5.60833621      -8.64445044
C       -3.84847524      -4.91562096      -7.43490296
N       -5.05168806      -4.53464032      -3.92496242
C       -6.40514234      -5.06127284      -3.74956441
C       -6.44751841      -6.45928152      -3.16417563
C       -7.54279694      -7.28897339      -3.46318543
C       -7.59889616      -8.60350544      -2.98912758
C       -6.56985460      -9.10021673      -2.19334628
C       -5.50527394      -8.27411220      -1.86015996
F       -4.51727390      -8.75027101      -1.09122665
C       -5.44083145      -6.96176964      -2.32215527
N       -4.57652434      -3.73460877      -2.94291829
H        0.57116373      -1.01263898      -2.47350806
H       -0.82756011      -2.43171583      -3.89355157
H       -3.93373572      -2.35969693      -0.88882547
H       -2.51908559      -0.93421823       0.52780384
H       -2.16222668      -3.83387160      -5.18088445
H       -5.39609404      -7.15247107      -5.40067805
H       -5.70577037      -8.30784944      -7.51423060
H       -3.53925307      -5.19370356      -9.54715290
H       -3.31393025      -3.96581053      -7.43859454
H       -6.88793723      -5.02670312      -4.73179462
H       -6.94715318      -4.37463721      -3.08677597
H       -8.35589771      -6.92246683      -4.08873653
H       -8.44268704      -9.23936684      -3.24388177
H       -6.59155111     -10.12135481      -1.82616889
H       -4.58599315      -6.35777386      -2.02853325
C       -4.79453525      -7.53661969      -9.91603828
C       -4.91138570      -8.13705225     -10.95539516
Br      -5.10032301      -9.10790091     -12.63594733
C       -0.88160991       0.88160991       0.88160991
C       -2.02771854       1.46688292       0.34939735
C       -2.83961097       2.27109985       1.15724711
C       -2.51408163       2.49784325       2.50382446
C       -1.35020011       1.89947256       3.01698886
C       -0.53713324       1.09506811       2.21238621
C       -3.36293860       3.33101247       3.36676881
C       -4.57589913       3.98940349       3.04902030
C       -5.00563708       4.64777980       4.19369527
C       -6.19532608       5.49826870       4.35135066
C       -6.98743150       5.49737762       5.50570075
C       -8.12288136       6.30864650       5.61046626
C       -8.50486549       7.10678419       4.53806308
C       -7.75829058       7.10358171       3.36652336
C       -6.60805082       6.31079467       3.28015367
N       -4.04270472       4.33597002       5.13261606
C       -3.92922566       4.75812474       6.52862919
C       -4.69360335       3.87862986       7.49874235
C       -5.15380540       4.43633695       8.70481340
C       -5.90838181       3.67775564       9.60539173
C       -6.19660742       2.34538787       9.32142232
C       -5.71108630       1.77632265       8.15213715
F       -5.98461077       0.49350954       7.88065125
C       -4.95439825       2.52030298       7.25005512
N       -3.04154763       3.56818837       4.64431539
H       -2.30114070       1.30347988      -0.68963726
H       -3.72721388       2.71238268       0.71323096
H       -1.06893141       2.05579850       4.05752822
H        0.35524144       0.64304825       2.63769317
H       -5.08918959       3.98859122       2.09920192
H       -6.77074303       4.84071719       6.33778294
H       -8.70978678       6.29054977       6.52751386
H       -8.05796016       7.70646547       2.51568389
H       -6.03810032       6.32890862       2.35132637
H       -4.27601335       5.79575725       6.57466438
H       -2.86438505       4.74988443       6.79429689
H       -4.94461461       5.47831673       8.94416973
H       -6.27342193       4.12752811      10.52498560
H       -6.79030847       1.74520543      10.00356092
H       -4.59689783       2.02409125       6.35131118
C       -9.68698586       7.92310708       4.63710028
C      -10.67701167       8.60677751       4.72004394
Br     -12.27779966       9.71221476       4.85415681
C        0.88160991      -0.88160991       0.88160991
C        0.44355747      -1.24898759       2.15145376
C        1.24801218      -2.06106097       2.95888478
C        2.49706365      -2.51348837       2.50519730
C        2.91906085      -2.12608716       1.22151353
C        2.11732423      -1.31505045       0.41221289
C        3.34753805      -3.37551425       3.33766759
C        3.09100882      -3.89223810       4.63107599
C        4.18969287      -4.65704175       5.00037754
C        4.40849566      -5.36602980       6.27041997
C        5.01908242      -6.62345806       6.34796940
C        5.19326233      -7.27409549       7.57463629
C        4.71908829      -6.68787491       8.74274957
C        4.07841524      -5.45619718       8.69378323
C        3.93347225      -4.79895426       7.46657266
N        5.03084064      -4.57148788       3.90896228
C        6.36004118      -5.14825320       3.70768521
C        6.33785685      -6.56502770       3.16809101
C        7.41518714      -7.42065300       3.45911562
C        7.41310561      -8.75091117       3.02751240
C        6.34268229      -9.23847146       2.28226386
C        5.29476385      -8.38855226       1.95622999
F        4.26689362      -8.85608336       1.23579458
C        5.28803904      -7.06059207       2.37612524
N        4.54927015      -3.78813197       2.91664928
H       -0.52084040      -0.91286812       2.52295559
H        0.87793746      -2.33123640       3.94365365
H        3.88308995      -2.45946500       0.83970318
H        2.46872273      -1.03406167      -0.57728442
H        2.20885471      -3.73484439       5.23328363
H        5.33967246      -7.15043838       5.45913232
H        5.68214827      -8.24680496       7.59889717
H        3.68592876      -4.99840918       9.59577158
H        3.43021790      -3.83225252       7.45586489
H        6.87612394      -5.09815158       4.67215946
H        6.90152710      -4.50174367       3.00529560
H        8.26004150      -7.06145357       4.04560601
H        8.24398857      -9.40596902       3.27597806
H        6.31924281     -10.27106280       1.94876921
H        4.44380043      -6.43824989       2.09024993
C        4.87667468      -7.36870949      10.00180906
C        5.00865328      -7.93890845      11.05627139
Br       5.22205152      -8.86087194      12.76124778
