165
Properties=species:S:1:pos:R:3 pbc="F F F"
C        0.00000000       0.00000000       0.00000000
C        0.88160991       0.88160991      -0.88160991
C        2.14478485       1.26294727      -0.43626669
C        2.95616043       2.06676371      -1.24503379
C        2.51317901       2.49678068      -2.50578965
C        1.23296447       2.10211749      -2.93157958
C        0.42004406       1.29865784      -2.12588565
C        3.35847732       3.33195429      -3.37028827
C        4.67276909       3.80496405      -3.13658977
C        5.05134178       4.55036089      -4.24540948
C        6.31373326       5.27536430      -4.45584788
C        6.96512196       5.33160394      -5.69378397
C        8.17502024       6.01734227      -5.84963160
C        8.77239879       6.62581170      -4.75150227
Br      10.42185313       7.52425085      -4.95556260
C        8.16729486       6.55826855      -3.50283224
C        6.94309366       5.89472626      -3.36117925
N        3.95772048       4.46942482      -5.08414550
C        3.74289389       5.07455266      -6.39853304
C        4.27660679       4.24462790      -7.54974086
C        4.66561756       4.89514377      -8.73419443
C        5.21272696       4.17671251      -9.80208971
C        5.36032440       2.79532364      -9.70776956
C        4.94080471       2.14109358      -8.55764781
F        5.07877335       0.81177108      -8.46822714
C        4.38993813       2.84517981      -7.48963840
N        2.92862120       3.76307176      -4.56235844
H        2.50997475       0.94004026       0.53503170
H        3.93647721       2.34625848      -0.87009182
H        0.85897824       2.41911748      -3.90416240
H       -0.56423752       1.00675124      -2.48298626
H        5.28493354       3.62672826      -2.26532093
H        6.57544311       4.81372169      -6.56007836
H        8.64854791       6.04962437      -6.82967812
H        8.63407203       7.01148600      -2.63455148
H        6.48759868       5.85907503      -2.37166161
H        4.21061132       6.06428685      -6.37153680
H        2.66254577       5.21920447      -6.52681612
H        4.56423814       5.97582726      -8.82703567
H        5.52638199       4.69531276     -10.70424090
H        5.79332952       2.22343994     -10.52230536
H        4.07551474       2.28259590      -6.61418962
C       -0.88160991      -0.88160991      -0.88160991
C       -0.43309423      -1.26912624      -2.14177834
C       -1.23760440      -2.08123386      -2.94911968
C       -2.49716309      -2.51358253      -2.50500371
C       -2.92955051      -2.10606948      -1.23104155
C       -2.12779226      -1.29494437      -0.42185093
C       -3.34798543      -3.37539332      -3.33734113
C       -3.08246241      -3.91038739      -4.62147312
C       -4.18573458      -4.66658912      -4.99478846
C       -4.39803101      -5.38797363      -6.25894079
C       -5.02253356      -6.63899177      -6.32898455
C       -5.19002972      -7.30204236      -7.54992203
C       -4.69528270      -6.73531000      -8.71912006
Br      -4.89324603      -7.64562422     -10.36279633
C       -4.04066844      -5.51073028      -8.67699693
C       -3.90233318      -4.84072607      -7.45593992
N       -5.03854033      -4.55824956      -3.91450091
C       -6.37675346      -5.11697253      -3.72225360
C       -6.37769396      -6.52741212      -3.16586948
C       -7.46160947      -7.37374498      -3.45960131
C       -7.48035870      -8.69872515      -3.01244532
C       -6.42459802      -9.18992455      -2.24889504
C       -5.37056817      -8.34853724      -1.92044069
F       -4.35682642      -8.81950580      -1.18243934
C       -5.34317827      -7.02581910      -2.35575898
N       -4.55937648      -3.76887970      -2.92579522
H        0.53950829      -0.94875927      -2.50573233
H       -0.85924499      -2.36738474      -3.92619778
H       -3.90187260      -2.42357729      -0.85680822
H       -2.48740524      -0.99814443       0.56004969
H       -2.19150794      -3.77049309      -5.21498170
H       -5.35974293      -7.15160319      -5.43789704
H       -5.69009689      -8.26917552      -7.56857799
H       -3.63223893      -5.06829999      -9.57957061
H       -3.38781202      -3.87992888      -7.45059442
H       -6.88086867      -5.07226617      -4.69330013
H       -6.91872911      -4.45587941      -3.03395785
H       -8.29521486      -7.01164943      -4.06023679
H       -8.31598170      -9.34690170      -3.26305225
H       -6.41731318     -10.21869281      -1.90306883
H       -4.49502775      -6.41006662      -2.06720589
C       -0.88160991       0.88160991       0.88160991
C       -2.05657424       1.42216549       0.36525908
C       -2.86836618       2.22627916       1.17331259
C       -2.51391363       2.49757897       2.50425672
C       -1.32133547       1.94388815       3.00143792
C       -0.50827988       1.13970511       2.19660257
C       -3.36198019       3.33113791       3.36760179
C       -4.60010105       3.94877481       3.06544706
C       -5.01727094       4.62620723       4.20363398
C       -6.22485628       5.44919449       4.37089467
C       -6.98616453       5.45859867       5.54574668
C       -8.13987911       6.24239160       5.65972341
C       -8.57111830       7.00114320       4.57745127
Br     -10.14638941       8.03432327       4.72095390
C       -7.85564841       6.98599452       3.38675272
C       -6.68716960       6.22155202       3.29027754
N       -4.02205872       4.36505972       5.12417236
C       -3.88346570       4.82741159       6.50510230
C       -4.59827185       3.95460417       7.51809953
C       -5.04157141       4.53229114       8.72109322
C       -5.75165336       3.77869964       9.66117617
C       -6.01129577       2.43209262       9.42002922
C       -5.54142679       1.84470704       8.25341227
F       -5.78738365       0.54834015       8.02304777
C       -4.82888157       2.58372269       7.31215210
N       -3.01375043       3.61089904       4.62940192
H       -2.35260880       1.22379193      -0.66141742
H       -3.77882785       2.63208309       0.74191658
H       -1.01723027       2.13543542       4.02959244
H        0.40674909       0.72279372       2.60945534
H       -5.13787011       3.90899700       2.13011563
H       -6.73019793       4.83043836       6.38860687
H       -8.70188084       6.23359486       6.59237470
H       -8.19358318       7.55773978       2.52878656
H       -6.14241966       6.22960553       2.34631012
H       -4.25669519       5.85647364       6.53326614
H       -2.81219938       4.85419064       6.74217634
H       -4.85427048       5.58544669       8.92738391
H       -6.10445540       4.24331854      10.57816170
H       -6.57059104       1.83512791      10.13335586
H       -4.48181991       2.07306031       6.41742004
C        0.88160991      -0.88160991       0.88160991
C        0.45690011      -1.22424669       2.16285201
C        1.26128866      -2.03627565       2.97039362
C        2.49694608      -2.51336790       2.50543535
C        2.90569006      -2.15067654       1.21029494
C        2.10397682      -1.33975061       0.40086012
C        3.34699147      -3.37565038       3.33807803
C        3.10196207      -3.86991267       4.64244818
C        4.19480277      -4.64528016       5.00702922
C        4.42189834      -5.33904093       6.28400616
C        5.01539807      -6.60400219       6.37110961
C        5.19808647      -7.23939728       7.60451036
C        4.74949721      -6.62957245       8.77064310
Br       4.96747334      -7.50191076      10.43228248
C        4.12596427      -5.38950591       8.71292547
C        3.97259375      -4.74794131       7.47846411
N        5.02107315      -4.58772497       3.90249269
C        6.33875841      -5.18666751       3.69055367
C        6.28831888      -6.61058379       3.17207289
C        7.35736102      -7.47756833       3.46002640
C        7.32984116      -8.81372622       3.04796180
C        6.24174957      -9.29628092       2.32538712
C        5.20151997      -8.43593428       2.00209185
F        4.15662291      -8.89872816       1.30342049
C        5.22003139      -7.10211379       2.40261118
N        4.53638908      -3.81178056       2.90588175
H       -0.49703651      -0.86877550       2.54324432
H        0.90177947      -2.28682430       3.96422374
H        3.85914696      -2.50354961       0.81956155
H        2.44490027      -1.07818630      -0.59758659
H        2.23104823      -3.69101102       5.25492348
H        5.31536453      -7.14833933       5.48553929
H        5.67322937      -8.21868974       7.63593130
H        3.75331296      -4.91310787       9.61368869
H        3.48319685      -3.77425061       7.46088786
H        6.86953218      -5.13023375       4.64666904
H        6.87917909      -4.55830331       2.97108396
H        8.21576687      -7.12233893       4.02899527
H        8.15475209      -9.47720031       3.29398325
H        6.19859093     -10.33311123       2.00737266
H        4.38075085      -6.47169176       2.11985764
