161
Properties=species:S:1:pos:R:3 pbc="F F F"
C        0.00000000       0.00000000       0.00000000
Cl       5.82712084      -2.36022254      -6.40803986
C        5.38655504      -0.81655131      -5.79100351
C        6.33111535       0.20520965      -5.73982898
C        5.97041268       1.45939995      -5.23952849
C        4.66847737       1.68714524      -4.76169809
C        3.72038366       0.65810934      -4.84119033
C        4.08289086      -0.59272088      -5.35281635
N        4.33735609       2.97513127      -4.24140737
N        5.05794217       4.04933388      -4.66321301
C        4.40519516       5.12691624      -4.21617754
C        3.33075024       4.73900987      -3.38605664
C        3.32962991       3.35492682      -3.35538740
C        2.49703331       2.48820386      -2.51684734
C        3.05670419       1.44627027      -1.76264112
C        2.24987689       0.63539017      -0.95866093
C        0.88141285       0.88141285      -0.88141285
C        0.31261336       1.93021468      -1.59913938
C        1.11904957       2.73002773      -2.41383764
C        4.81782775       6.48573011      -4.57727802
C        4.49204706       7.58130004      -3.76356711
C        4.85871016       8.87950928      -4.13465818
C        5.55300336       9.08945899      -5.32393598
C        5.89137647       8.01468918      -6.14164317
C        5.52733863       6.71758133      -5.76632780
H        7.34737975       0.03572328      -6.08623209
H        6.72316653       2.24561238      -5.20324786
H        2.68318945       0.80791443      -4.55395542
H        3.33918279      -1.38333250      -5.41548194
H        2.65501913       5.38409439      -2.84267401
H        4.12709162       1.25168366      -1.79155506
H        2.70048931      -0.17756189      -0.39517125
H       -0.75273057       2.13523413      -1.53290543
H        0.65797297       3.54367712      -2.97038204
H        3.95820342       7.44219811      -2.82692143
H        4.59794338       9.71503434      -3.49030427
H        6.43303671       8.17018993      -7.07085387
H        5.79213840       5.88470179      -6.41557627
C        5.92150666      10.42699070      -5.70970050
C        6.23012818      11.54717349      -6.03277829
Br       6.72914306      13.35841434      -6.55516775
Cl      -8.50213960       1.23197201      -2.60477058
C       -7.39709803      -0.04877375      -2.91513546
C       -7.86758128      -1.35159136      -3.05698133
C       -6.96791201      -2.39061138      -3.31081774
C       -5.58892794      -2.13283677      -3.39555598
C       -5.13045057      -0.81395579      -3.27527697
C       -6.03578174       0.22475557      -3.03196016
N       -4.69512935      -3.21958575      -3.63917963
N       -5.17612421      -4.32567809      -4.26868675
C       -4.10692535      -5.06805378      -4.57330981
C       -2.94099479      -4.49922126      -4.01560070
C       -3.33385341      -3.34332482      -3.36276589
C       -2.50861525      -2.48376862      -2.50970064
C       -2.94452225      -2.08303937      -1.23805396
C       -2.14017927      -1.27196381      -0.43178491
C       -0.88141285      -0.88141285      -0.88141285
C       -0.41926772      -1.29452823      -2.12817147
C       -1.23139981      -2.09295870      -2.93855643
C       -4.21748799      -6.29188390      -5.37146399
C       -3.25186300      -7.30560618      -5.27944503
C       -3.34613217      -8.45467045      -6.07207501
C       -4.40745759      -8.59568250      -6.96325825
C       -5.37936093      -7.60398985      -7.06435803
C       -5.28506120      -6.45828647      -6.26790008
H       -8.92949866      -1.56760686      -2.97222961
H       -7.35316470      -3.40393581      -3.41492626
H       -4.08354161      -0.55446680      -3.40705090
H       -5.67139458       1.24545294      -2.94539059
H       -1.93618703      -4.89570103      -4.04989947
H       -3.91545853      -2.39599171      -0.85888011
H       -2.50333195      -0.95826434       0.54349762
H        0.56741466      -1.00363223      -2.47919142
H       -0.85609018      -2.40454757      -3.91139438
H       -2.41916426      -7.22250836      -4.58565035
H       -2.58856762      -9.22920034      -5.98551402
H       -6.21043516      -7.70661705      -7.75702829
H       -6.04745796      -5.68636851      -6.35859000
C       -4.49834292      -9.77434039      -7.78551456
C       -4.57445938     -10.76146637      -8.47415422
Br      -4.69753326     -12.35756559      -9.58762631
Cl       1.96968144       7.73363678       4.11098283
C        0.52772286       6.79653735       4.09219275
C       -0.29433287       6.76619080       5.21563030
C       -1.46653992       6.00526804       5.19753317
C       -1.80593601       5.24838171       4.06300298
C       -0.98303621       5.30658873       2.93005838
C        0.18397840       6.07826103       2.94870370
N       -3.00198417       4.46844467       4.08346589
N       -4.00514173       4.84220806       4.92313927
C       -5.06521022       4.10396309       4.57911563
C       -4.70256246       3.15282384       3.60043046
C       -3.35917417       3.35036434       3.33040561
C       -2.49242323       2.51763113       2.49203014
C       -1.24430842       2.07078107       2.95052610
C       -0.43412831       1.26737092       2.14242877
C       -0.88141285       0.88141285       0.88141285
C       -2.13044334       1.29007552       0.42144856
C       -2.93211478       2.10558387       1.22521628
C       -6.38197924       4.31134408       5.18751256
C       -7.33312677       3.28053235       5.22325508
C       -8.60086108       3.49842507       5.77359147
C       -8.92509437       4.75061973       6.29068424
C       -7.99276909       5.78436855       6.27057117
C       -6.72483158       5.56273241       5.72368376
H       -0.03215338       7.32995242       6.10722933
H       -2.09543587       5.99004548       6.08654541
H       -1.24134793       4.79909446       2.00461691
H        0.81338875       6.12149395       2.06322703
H       -5.32939310       2.38798223       3.16441220
H       -0.88613383       2.34257630       3.94162021
H        0.53704096       0.94560975       2.50952988
H       -2.49048348       0.98150059      -0.55657507
H       -3.90430231       2.41844754       0.84928228
H       -7.10100451       2.29258860       4.83372985
H       -9.32355855       2.68686452       5.79285892
H       -8.23798228       6.76398059       6.67211764
H       -6.00499688       6.37938649       5.70803309
C      -10.23343002       4.97659582       6.84817203
C      -11.32916112       5.16585079       7.31506805
Br     -13.10086565       5.47186007       8.06999943
Cl       2.46054629      -8.55735424      -1.14296237
C        2.80626651      -7.43833113       0.11640960
C        2.96062802      -7.89164138       1.42388457
C        3.24319341      -6.98066076       2.44548695
C        3.34437114      -5.60704415       2.16590540
C        3.21115476      -5.16629616       0.84223241
C        2.93902787      -6.08309015      -0.17913168
N        3.61735310      -4.70107721       3.23546442
N        4.25617260      -5.17508489       4.33923156
C        4.58757578      -4.09974071       5.06097245
C        4.03865922      -2.93410796       4.48304958
C        3.36290112      -3.33414613       3.34289687
C        2.50932895      -2.50899746       2.48375810
C        1.22555080      -2.93170013       2.10836465
C        0.41918152      -2.12742752       1.29731895
C        0.88141285      -0.88141285       0.88141285
C        2.14088006      -0.43192331       1.26916404
C        2.95106057      -1.24423110       2.06762326
C        5.40222167      -4.20418477       6.27442944
C        5.33960117      -3.22246510       7.27484793
C        6.14784633      -3.31163797       8.41339333
C        7.02530852      -4.38397561       8.55711420
C        7.09724471      -5.37178351       7.57868060
C        6.28522311      -5.28247337       6.44355128
H        2.86348277      -8.94887604       1.65697632
H        3.35675342      -7.35245917       3.46281418
H        3.35444087      -4.12540993       0.56520850
H        2.84258538      -5.73252348      -1.20377663
H        4.09367811      -1.92419429       4.86391512
H        0.83683757      -3.89214432       2.44134845
H       -0.56592502      -2.48054057       1.00348312
H        2.50200726       0.54500929       0.95841102
H        3.93387060      -0.87895832       2.35920321
H        4.65698230      -2.38080166       7.18953901
H        6.08404209      -2.54153772       9.17770218
H        7.77905530      -6.21151834       7.68350687
H        6.35312325      -6.05742802       5.68186520
C        7.86366575      -4.46977238       9.72475973
C        8.56578993      -4.54162718      10.70266285
Br       9.70106534      -4.65781031      12.28384950
