153
Properties=species:S:1:pos:R:3 pbc="F F F"
C        0.00000000       0.00000000       0.00000000
Cl       5.82712084      -2.36022254      -6.40803986
C        5.38655504      -0.81655131      -5.79100351
C        6.33111535       0.20520965      -5.73982898
C        5.97041268       1.45939995      -5.23952849
C        4.66847737       1.68714524      -4.76169809
C        3.72038366       0.65810934      -4.84119033
C        4.08289086      -0.59272088      -5.35281635
N        4.33735609       2.97513127      -4.24140737
N        5.05794217       4.04933388      -4.66321301
C        4.40519516       5.12691624      -4.21617754
C        3.33075024       4.73900987      -3.38605664
C        3.32962991       3.35492682      -3.35538740
C        2.49703331       2.48820386      -2.51684734
C        3.05670419       1.44627027      -1.76264112
C        2.24987689       0.63539017      -0.95866093
C        0.88141285       0.88141285      -0.88141285
C        0.31261336       1.93021468      -1.59913938
C        1.11904957       2.73002773      -2.41383764
C        4.81782775       6.48573011      -4.57727802
C        4.49204706       7.58130004      -3.76356711
C        4.85871016       8.87950928      -4.13465818
C        5.55300336       9.08945899      -5.32393598
Br       6.03664190      10.84488933      -5.83022884
C        5.89137647       8.01468918      -6.14164317
C        5.52733863       6.71758133      -5.76632780
H        7.34737975       0.03572328      -6.08623209
H        6.72316653       2.24561238      -5.20324786
H        2.68318945       0.80791443      -4.55395542
H        3.33918279      -1.38333250      -5.41548194
H        2.65501913       5.38409439      -2.84267401
H        4.12709162       1.25168366      -1.79155506
H        2.70048931      -0.17756189      -0.39517125
H       -0.75273057       2.13523413      -1.53290543
H        0.65797297       3.54367712      -2.97038204
H        3.95820342       7.44219811      -2.82692143
H        4.59794338       9.71503434      -3.49030427
H        6.43303671       8.17018993      -7.07085387
H        5.79213840       5.88470179      -6.41557627
Cl       0.70870159      -8.76168943      -1.82195032
C       -0.41801922      -7.58024921      -2.36273881
C       -0.96082174      -7.67375380      -3.64157843
C       -1.87755572      -6.71342885      -4.07835656
C       -2.23316393      -5.63869168      -3.24546509
C       -1.69862151      -5.56925778      -1.95180403
C       -0.78944080      -6.53883806      -1.51470746
N       -3.15978666      -4.66546813      -3.72863994
N       -4.03458712      -5.03173881      -4.70416314
C       -4.91684623      -4.03192417      -4.79951854
C       -4.52757861      -2.95506045      -3.97317770
C       -3.36271702      -3.34347222      -3.33375488
C       -2.49896362      -2.51615220      -2.48696869
C       -1.11210091      -2.46292249      -2.69059219
C       -0.30323606      -1.65967605      -1.88101589
C       -0.88141285      -0.88141285      -0.88141285
C       -2.25964930      -0.89798197      -0.68433614
C       -3.06444464      -1.71327113      -1.48519916
C       -6.09210102      -4.11839274      -5.67034212
C       -6.71982886      -2.96130883      -6.15577652
C       -7.86313148      -3.05272013      -6.95702601
C       -8.38632542      -4.30361339      -7.27645953
Br      -9.93804187      -4.42527507      -8.34844313
C       -7.77399205      -5.46368452      -6.81003224
C       -6.62884240      -5.36965945      -6.01274591
H       -0.67769295      -8.48808827      -4.30355391
H       -2.28890525      -6.80009314      -5.08302838
H       -1.99934010      -4.80022002      -1.24549918
H       -0.38407152      -6.47966269      -0.50759803
H       -5.01201885      -1.99388238      -3.87588630
H       -0.64332807      -3.04611157      -3.48089070
H        0.77133146      -1.64542698      -2.04400315
H       -2.71812302      -0.28299800       0.08571202
H       -4.13947526      -1.71663984      -1.31591703
H       -6.32571823      -1.97434316      -5.92726158
H       -8.33441826      -2.14474255      -7.32412118
H       -8.17591839      -6.44321553      -7.05494659
H       -6.16083811      -6.28280187      -5.64877648
Cl      -4.34297360       7.58398119      -2.05201662
C       -4.22825658       6.70876354      -0.57601289
C       -4.24766936       7.39061548       0.63786913
C       -4.15597921       6.67716705       1.83619486
C       -4.01583383       5.27881019       1.82267667
C       -4.02216464       4.60207879       0.59543989
C       -4.12507554       5.31939197      -0.60148117
N       -3.90775978       4.58179143       3.06434353
N       -4.43288431       5.15846803       4.17913672
C       -4.40532829       4.21607206       5.12688859
C       -3.73324473       3.06714630       4.65542573
C       -3.36034575       3.33105017       3.34854820
C       -2.51362989       2.50369729       2.48475733
C       -1.42914209       3.05221501       1.78425848
C       -0.62400756       2.24689358       0.97302685
C       -0.88141285       0.88141285       0.88141285
C       -1.93480901       0.31381751       1.59334089
C       -2.74743453       1.12361177       2.39186864
C       -5.00427554       4.42954897       6.44701137
C       -4.56904754       3.70255696       7.56530971
C       -5.17145904       3.88685639       8.81456219
C       -6.21479621       4.79957456       8.95202757
Br      -7.03604158       5.03836981      10.63734868
C       -6.65650435       5.53540582       7.85579865
C       -6.04984332       5.35232922       6.60907523
H       -4.33391432       8.47390526       0.66151555
H       -4.16874369       7.22720566       2.77607742
H       -3.99126372       3.51752281       0.53627277
H       -4.13445906       4.78535698      -1.54848381
H       -3.51133796       2.16418290       5.20626666
H       -1.19738774       4.11286105       1.86008155
H        0.20121291       2.69429054       0.42502103
H       -2.13276968      -0.75337648       1.53601580
H       -3.56830242       0.66442709       2.93930262
H       -3.75131241       2.99084835       7.48516220
H       -4.81940408       3.31483327       9.66904463
H       -7.46972498       6.24944979       7.95490573
H       -6.40640350       5.92887274       5.75714023
Cl       2.49168116       1.16245460       8.54571161
C        2.86909028      -0.07707827       7.41483869
C        4.11199558      -0.70306155       7.46109684
C        4.41592601      -1.71128818       6.54212694
C        3.48580142      -2.07736183       5.55415744
C        2.22932550      -1.45691460       5.53344323
C        1.92523747      -0.45556004       6.46218883
N        3.83431007      -3.09963674       4.61994791
N        4.77272091      -4.01584230       4.98192585
C        4.73635925      -4.96782535       4.04410434
C        3.86262395      -4.59325789       2.99993491
C        3.33250968      -3.36192367       3.34551076
C        2.48826485      -2.49694545       2.51687421
C        2.78020284      -1.13506211       2.35035063
C        1.97103462      -0.32576870       1.54712467
C        0.88141285      -0.88141285       0.88141285
C        0.59392896      -2.23764535       1.01039310
C        1.39556683      -3.04145276       1.82589535
C        5.53025118      -6.19427553       4.15630917
C        5.88784018      -6.93161844       3.01745558
C        6.61499793      -8.12092927       3.13695042
C        6.98782852      -8.58057886       4.39799095
Br       7.95915528     -10.19378456       4.55882023
C        6.64833553      -7.85972383       5.53964945
C        5.92505749      -6.66903589       5.41715438
H        4.84841389      -0.41429406       8.20662717
H        5.39433136      -2.18717195       6.59052346
H        1.45087412      -1.75695193       4.83723325
H        0.94598441       0.01639417       6.44174200
H        3.66405058      -5.13288693       2.08485001
H        3.64014141      -0.68631730       2.84387163
H        2.20436832       0.73088154       1.44461189
H       -0.24745579      -2.67973471       0.48313008
H        1.15515417      -4.09884121       1.91803675
H        5.61582474      -6.58924791       2.02225032
H        6.88326887      -8.67733976       2.24267336
H        6.93561038      -8.21155241       6.52691771
H        5.66004861      -6.11577020       6.31659765
