161
Properties=species:S:1:pos:R:3 pbc="F F F"
C        0.00000000       0.00000000       0.00000000
C        0.88212742       0.88212742      -0.88212742
C        2.10788288       0.39867239      -1.33338348
C        2.91515731       1.20915956      -2.12829106
C        2.48715931       2.49348092      -2.47746186
C        1.24639967       2.98449426      -2.03818403
C        0.45380020       2.16769165      -1.22039747
C        0.82883796       4.34776268      -2.39011157
N        1.74458048       5.31167056      -2.53531356
N        1.04730809       6.46736535      -2.69342276
C        1.77073138       7.69789871      -2.66675713
C        1.17499353       8.89647600      -2.25706597
C        1.91673921      10.08118636      -2.25335555
C        3.25123230      10.07763410      -2.65639718
C        3.85632097       8.88592791      -3.04485740
C        3.12620602       7.69593740      -3.03639007
C       -0.31760399       6.23105430      -2.85438608
C       -1.33616218       7.21054331      -3.25732006
C       -1.14548304       8.03726749      -4.37596058
C       -2.12561515       8.95629352      -4.76147795
C       -3.32189938       9.03905992      -4.05235455
C       -3.52925055       8.20765810      -2.95405191
C       -2.54355852       7.30566824      -2.54986531
C       -0.46538960       4.86467042      -2.65951484
Cl      -1.90635326       3.95995825      -2.80689026
H        2.44505820      -0.59901610      -1.06494771
H        3.87970953       0.84713132      -2.47299237
H        3.13425705       3.11696196      -3.09146842
H       -0.48988480       2.52855837      -0.82218488
H        0.15202677       8.93630317      -1.89478615
H        1.45382745      11.00882925      -1.92482832
H        3.82293488      11.00229476      -2.65578898
H        4.89977802       8.87873781      -3.35514596
H        3.61950061       6.77634226      -3.34839345
H       -0.22751786       7.97827424      -4.96071813
H       -1.95745048       9.59977994      -5.62017524
H       -4.08605857       9.74527729      -4.36586092
H       -2.72355617       6.67017967      -1.68678426
C       -4.77426499       8.27341609      -2.23348620
C       -5.81696458       8.32848841      -1.63001242
Br      -7.50292164       8.41753570      -0.65424636
C       -0.88212742      -0.88212742      -0.88212742
C       -2.02042911      -1.47657929      -0.34293035
C       -2.81679313      -2.28935146      -1.14646335
C       -2.47741802      -2.49341214      -2.48727193
C       -1.33869369      -1.88706285      -3.04332142
C       -0.53346279      -1.08995884      -2.21846769
C       -0.98223435      -2.13894206      -4.44553580
N       -1.26559241      -3.31960320      -5.00636899
N       -0.67574131      -3.30182199      -6.23053289
C       -0.64002725      -4.51815925      -6.97720072
C        0.36627217      -4.78071696      -7.91409072
C        0.35994589      -5.98117392      -8.63005309
C       -0.64558081      -6.92286138      -8.41682139
C       -1.63750214      -6.67792619      -7.47167795
C       -1.62900535      -5.48788947      -6.74163867
C       -0.18137507      -2.03736344      -6.54909789
C        0.32143874      -1.59582341      -7.85731652
C       -0.41435523      -1.82189909      -9.03149072
C        0.06393185      -1.38570107     -10.27038709
C        1.26881868      -0.69066349     -10.34767028
C        1.99537299      -0.44249818      -9.18533427
C        1.53451785      -0.89767355      -7.94881933
C       -0.37592901      -1.28194929      -5.40091736
Cl      -0.04030359       0.38054360      -5.20073525
H       -2.28871129      -1.32094836       0.69866984
H       -3.69845969      -2.76976880      -0.73160473
H       -3.10536862      -3.13877001      -3.09854880
H        0.38005864      -0.64235676      -2.59856032
H        1.19136360      -4.09443832      -8.08004138
H        1.14888368      -6.18647802      -9.34989068
H       -0.64866109      -7.85330890      -8.97904863
H       -2.42122273      -7.41350429      -7.29893477
H       -2.41771004      -5.31619171      -6.01033458
H       -1.37005276      -2.34487411      -8.99654764
H       -0.50924562      -1.58123501     -11.17202407
H        1.62813613      -0.34128659     -11.31192919
H        2.11974490      -0.69811053      -7.05504213
C        3.22900833       0.29669953      -9.25834517
C        4.26217793       0.91577761      -9.31949180
Br       5.93272579       1.91677451      -9.41836072
C       -0.88212742       0.88212742       0.88212742
C       -2.20049559       1.13113260       0.50831057
C       -2.99917646       1.94480710       1.30862437
C       -2.47916517       2.49491973       2.48401718
C       -1.15477809       2.23827046       2.87602941
C       -0.35482862       1.43653506       2.05052563
C       -0.61790376       2.85075707       4.09805137
N       -1.04840015       4.05565661       4.48750783
N       -0.26031382       4.41208847       5.53569390
C       -0.35940866       5.74885324       6.02712532
C        0.71547393       6.38553519       6.65847424
C        0.57405457       7.69283846       7.13249723
C       -0.63489499       8.37004647       6.98032212
C       -1.70131959       7.75102509       6.33476161
C       -1.56261284       6.45101975       5.84490089
C        0.54782968       3.35716104       5.95850504
C        1.36028352       3.30999709       7.18198762
C        0.81439227       3.65291295       8.42922436
C        1.58978196       3.59130660       9.59063168
C        2.91166405       3.15646823       9.52471091
C        3.45564474       2.79330895       8.29479525
C        2.69324267       2.87675080       7.12846690
C        0.32192497       2.34621175       5.03450889
Cl       0.97248426       0.76747436       5.06550515
H       -2.60954881       0.70572734      -0.40428634
H       -4.02419789       2.15745361       1.01818172
H       -3.11390485       3.13591428       3.09286831
H        0.68735643       1.25343036       2.29478452
H        1.68693634       5.91077837       6.75927407
H        1.41426069       8.18825992       7.61348579
H       -0.74145484       9.38523330       7.35433048
H       -2.64511244       8.27896381       6.20958553
H       -2.41200542       5.98536384       5.34686706
H       -0.22319667       3.97643191       8.51184593
H        1.15795549       3.87421000      10.54625018
H        3.50491415       3.09673733      10.43325647
H        3.13891270       2.59385442       6.17846603
C        4.81401895       2.32030229       8.22635396
C        5.95165735       1.92415922       8.16903438
Br       7.79112243       1.28362938       8.07635347
C        0.88212742      -0.88212742       0.88212742
C        2.06161145      -0.36544825       1.41287906
C        2.86960212      -1.17533852       2.20766730
C        2.48790232      -2.49300459       2.47719518
C        1.29326200      -3.01848004       1.95733592
C        0.50065464      -2.20052868       1.14070599
C        0.92561607      -4.41457776       2.22651838
N        1.87873417      -5.34162586       2.37120457
N        1.23090835      -6.53409004       2.44309780
C        2.01266795      -7.72774040       2.39497887
C        1.49404975      -8.93128730       1.90319845
C        2.29086108     -10.07947524       1.88094480
C        3.60393249     -10.03440444       2.34692665
C        4.13317543      -8.83627528       2.81765558
C        3.34827203      -7.68170832       2.82855314
C       -0.14963313      -6.36810750       2.54936203
C       -1.13759601      -7.41105377       2.85824342
C       -0.95882187      -8.28065774       3.94590917
C       -1.91053352      -9.26069254       4.24199730
C       -3.06798425      -9.36391309       3.47358625
C       -3.26454311      -8.49137077       2.40563180
C       -2.30562112      -7.52719143       2.09040472
C       -0.35340263      -5.00212958       2.41006871
Cl      -1.84109450      -4.17201453       2.52957522
H        2.36268329       0.65822305       1.20652957
H        3.79909423      -0.78663021       2.61410877
H        3.13537998      -3.11495857       3.09234888
H       -0.40563502      -2.58457553       0.68191793
H        0.49170140      -9.00031649       1.49109820
H        1.88816138     -11.01050211       1.48882153
H        4.21852512     -10.93099762       2.33149588
H        5.15989312      -8.79639934       3.17736933
H        3.78242456      -6.75654034       3.20527142
H       -0.07228890      -8.20789650       4.57586691
H       -1.75113169      -9.93608310       5.07755329
H       -3.81106577     -10.11833547       3.71780995
H       -2.47624911      -6.86011088       1.24954598
C       -4.47090841      -8.57929253       1.62425318
C       -5.48123934      -8.65292701       0.96984858
Br      -7.11485900      -8.77198772      -0.08826830
