174
Properties=species:S:1:pos:R:3 pbc="F F F"
C        1.79203144       1.79203144      -1.79203144
C        3.01778690       1.30857642      -2.24328751
C        3.82506134       2.11906358      -3.03819509
C        3.39706333       3.40338494      -3.38736588
C        2.15630369       3.89439828      -2.94808805
C        1.36370422       3.07759568      -2.13030149
C        1.73874198       5.25766670      -3.30001559
N        2.65448451       6.22157458      -3.44521759
N        1.95721212       7.37726937      -3.60332678
C        2.68063540       8.60780273      -3.57666115
C        2.08489755       9.80638003      -3.16697000
C        2.82664323      10.99109039      -3.16325958
C        4.16113632      10.98753813      -3.56630120
C        4.76622499       9.79583193      -3.95476142
C        4.03611004       8.60584142      -3.94629409
C        0.59230004       7.14095833      -3.76429010
C       -0.42625815       8.12044733      -4.16722408
C       -0.23557901       8.94717152      -5.28586461
C       -1.21571113       9.86619755      -5.67138197
C       -2.41199536       9.94896394      -4.96225858
C       -2.61934653       9.11756213      -3.86395593
Br      -4.25278290       9.20383542      -2.91858679
C       -1.63365450       8.21557226      -3.45976934
C        0.44451443       5.77457445      -3.56941887
Cl      -0.99644923       4.86986227      -3.71679428
H        3.35496222       0.31088793      -1.97485174
H        4.78961356       1.75703535      -3.38289639
H        4.04416108       4.02686598      -4.00137245
H        0.42001922       3.43846239      -1.73208890
H        1.06193079       9.84620719      -2.80469018
H        2.36373148      11.91873327      -2.83473234
H        4.73283891      11.91219878      -3.56569300
H        5.80968204       9.78864183      -4.26504998
H        4.52940463       7.68624629      -4.25829747
H        0.68238616       8.88817826      -5.87062216
H       -1.04754646      10.50968396      -6.53007926
H       -3.17615454      10.65518132      -5.27576494
H       -1.81365215       7.58008369      -2.59668828
C       -1.79203144      -1.79203144      -1.79203144
C       -3.11787509      -1.43158706      -2.02018868
C       -3.92305038      -2.24351838      -2.81575125
C       -3.39495643      -3.40445255      -3.38840518
C       -2.05510430      -3.76880022      -3.17488550
C       -1.26195620      -2.95546301      -2.35418218
C       -1.52808111      -5.00844432      -3.75989885
N       -2.33145687      -6.06492426      -3.92489554
N       -1.52785444      -7.08535442      -4.32459941
C       -2.08611217      -8.39815719      -4.38082993
C       -1.29861619      -9.54359628      -4.21603511
C       -1.88361153     -10.81110804      -4.28627363
C       -3.25150687     -10.94326234      -4.52020644
C       -4.04442623      -9.80844328      -4.66394884
C       -3.46981972      -8.53882536      -4.57960048
C       -0.23710615      -6.64486031      -4.61558201
C        0.82710045      -7.41799616      -5.27051755
C        0.58522031      -8.12140410      -6.46127332
C        1.60673538      -8.84253118      -7.08607259
C        2.89069556      -8.84444685      -6.54547588
C        3.14558481      -8.13167103      -5.37608531
Br       4.89233135      -8.10523069      -4.65673997
C        2.12325053      -7.43032116      -4.73461647
C       -0.23051073      -5.30495740      -4.25303961
Cl       1.05585783      -4.19858930      -4.44747585
H       -3.53311517      -0.53005750      -1.57752921
H       -4.96269470      -1.97923380      -2.98761680
H       -4.04034170      -4.03234701      -3.99971080
H       -0.23556610      -3.22797663      -2.12702779
H       -0.23817517      -9.48522715      -3.98942584
H       -1.27073692     -11.69875750      -4.14770268
H       -3.70130606     -11.93127274      -4.57815189
H       -5.11386456      -9.90802751      -4.84148180
H       -4.10929933      -7.66528972      -4.69935934
H       -0.40509018      -8.11945182      -6.91664458
H        1.40071433      -9.39421876      -7.99871234
H        3.68408175      -9.39497991      -7.04389355
H        2.34247828      -6.88539048      -3.82020763
C       -1.79203144       1.79203144       1.79203144
C       -1.71547065       3.17788191       1.67629826
C       -2.51275245       3.97996061       2.48960695
C       -3.39057409       3.39202282       3.40521724
C       -3.48440492       1.99498931       3.51939579
C       -2.66056607       1.19962139       2.71141393
C       -4.39001188       1.39735792       4.50905448
N       -4.62931471       2.02800018       5.66396178
N       -5.35805995       1.16274190       6.41700642
C       -5.58596955       1.49167678       7.78745296
C       -5.79307027       0.50583645       8.75934086
C       -6.02075700       0.87103536      10.08920084
C       -6.04311030       2.21572115      10.45614420
C       -5.81695835       3.20071300       9.49914700
C       -5.57348603       2.84301139       8.17174814
C       -5.76610896       0.05135720       5.68008231
C       -6.73444980      -0.97158731       6.09855077
C       -7.98553862      -0.61393932       6.62585781
C       -8.90702832      -1.59310209       7.00794215
C       -8.60212602      -2.94191692       6.83901806
C       -7.37192193      -3.30617927       6.29642886
Br      -6.96672974      -5.13298573       6.03589529
C       -6.43824954      -2.33295293       5.93639049
C       -5.14442152       0.19657693       4.44750929
Cl      -5.32287702      -0.81820783       3.08553813
H       -1.03489309       3.63982645       0.96598234
H       -2.44966903       5.06213449       2.41774178
H       -3.99952634       4.03340413       4.03946904
H       -2.66977444       0.11757428       2.80322180
H       -5.74108124      -0.55325596       8.52500288
H       -6.17120950       0.10233332      10.84365427
H       -6.22471410       2.49506350      11.49095310
H       -5.82850476       4.25154205       9.78332706
H       -5.40329059       3.63116184       7.43949596
H       -8.25765706       0.43430376       6.74922576
H       -9.86499936      -1.30120153       7.42841895
H       -9.32856156      -3.69812115       7.12435131
H       -5.48217231      -2.63908813       5.52003565
C        1.79203144      -1.79203144       1.79203144
C        1.65014446      -3.17669136       1.74281501
C        2.44794594      -3.97806415       2.55630992
C        3.39117639      -3.39138367       3.40525410
C        3.55071457      -1.99641499       3.45166047
C        2.72635896      -1.20030170       2.64494072
C        4.52546071      -1.39810475       4.37285881
N        4.78935568      -1.98818693       5.54373407
N        5.58846952      -1.12502578       6.22431297
C        5.86389620      -1.40411387       7.59708922
C        6.15757938      -0.38740074       8.51326746
C        6.42936393      -0.70443462       9.84719464
C        6.40991276      -2.03153122      10.27353168
C        6.09792940      -3.04588497       9.37300399
C        5.81017651      -2.73550945       8.04255960
C        6.01052525      -0.06639941       5.42062381
C        7.04041251       0.92871248       5.74971324
C        8.29744189       0.53784655       6.23786177
C        9.27701525       1.48981081       6.53466395
C        9.02365202       2.84246942       6.31804457
C        7.78705918       3.23832376       5.81343610
Br       7.45021280       5.06860408       5.48803059
C        6.79658677       2.29379563       5.53889596
C        5.32775986      -0.23664713       4.22410075
Cl       5.48808193       0.70884078       2.81096617
H        0.91856953      -3.63766816       1.08446419
H        2.33469839      -5.05835424       2.53649267
H        3.99986889      -4.03160147       4.04092915
H        2.78673854      -0.11682394       2.68700803
H        6.14106792       0.66177591       8.23353615
H        6.64719724       0.08869509      10.55869493
H        6.62603172      -2.27360569      11.31109329
H        6.07670169      -4.08281144       9.70386073
H        5.57280284      -3.54618744       7.35495811
H        8.52907726      -0.51532502       6.39678431
H       10.23951014       1.17323685       6.92594348
H        9.79447323       3.57657358       6.53689207
H        5.83678773       2.62466915       5.15100124
C       -0.00445707       0.01189536      -1.78238275
H       -0.66409135       0.67374010      -2.43557963
H        0.65740317      -0.63156657      -2.45157240
C       -0.90989263      -0.90692880      -0.91072765
C        0.90977584       0.90977584      -0.90977584
C       -0.00465871       1.77757030       0.00794375
H       -0.66225468       2.44313916      -0.64384735
H        0.64322798       2.43503045       0.67728295
C       -1.78241447       0.00034974      -0.00472694
H       -2.45427497      -0.65498947       0.64260836
H       -2.43311707       0.67328779      -0.65473579
C       -0.91132561       0.90220522       0.91563759
C       -0.01476271      -0.02253852       1.78660255
H       -0.67934791      -0.69751639       2.42135241
H        0.63392994       0.61504881       2.47327442
C        0.01484550      -1.77751727      -0.01636693
H        0.67870853      -2.42144646      -0.68295456
H       -0.62264859      -2.45592969       0.64226336
C        1.78714474       0.01002794       0.00389507
H        2.44202412       0.67113390       0.66197326
H        2.45385902      -0.65136977      -0.64189061
C        0.91606151      -0.90478549       0.90901405
