153
Properties=species:S:1:pos:R:3 pbc="F F F"
C        0.00000000       0.00000000       0.00000000
C        0.88203633       0.88203633      -0.88203633
C        0.75710104       2.26761730      -0.81706137
C        1.55554650       3.06754170      -1.63204032
C        2.47574335       2.48093882      -2.50678710
C        2.61256884       1.08567090      -2.57122320
C        1.80145104       0.28991179      -1.74973829
C        3.57013005       0.46907413      -3.49373556
N        4.01604044       1.09791294      -4.58580260
N        4.74244361       0.17472265      -5.27371632
C        5.11028724       0.46447005      -6.62281174
C        5.38700710      -0.55307839      -7.54620113
C        5.74929537      -0.23423851      -8.85851698
C        5.82766851       1.09824804      -9.25979291
C        5.52487137       2.11088547      -8.35224347
Cl       5.61758032       3.75580177      -8.85237518
C        5.15549657       1.80391987      -7.04338072
C        4.97612310      -0.96282853      -4.50047341
C        4.17207482      -0.80344286      -3.38468150
C        5.90782511      -2.06401749      -4.76581330
C        7.22008540      -1.82549954      -5.20044693
C        8.09839650      -2.88818918      -5.43019487
C        7.68687888      -4.19918877      -5.19776271
C        6.39613666      -4.44097561      -4.73532265
Br       5.84241735      -6.21492025      -4.38412871
C        5.50812470      -3.38643974      -4.52214990
H        0.04149327       2.73020776      -0.14320916
H        1.46212206       4.15035747      -1.59232660
H        3.08799025       3.11976248      -3.14016613
H        1.86604002      -0.79429647      -1.79332966
H        5.28987880      -1.60428916      -7.29017009
H        5.96025145      -1.02870481      -9.57092894
H        6.11270749       1.33970246     -10.28013533
H        4.92670051       2.61207785      -6.35130264
H        4.07540461      -1.50508808      -2.56791399
H        7.57577719      -0.81091080      -5.36465587
H        9.10907078      -2.69070891      -5.78279676
H        8.37903238      -5.01982962      -5.36845467
H        4.50376351      -3.59567581      -4.16322877
C       -0.88203633      -0.88203633      -0.88203633
C       -0.90341622      -0.67869815      -2.25966534
C       -1.71842842      -1.47801073      -3.05868937
C       -2.50698810      -2.47724044      -2.47924072
C       -2.48387183      -2.69292576      -1.09266535
C       -1.66329915      -1.88038188      -0.29742009
C       -3.31630557      -3.73376514      -0.48286902
N       -4.41684110      -4.20678472      -1.07613015
N       -5.01036501      -5.02035596      -0.16016162
C       -6.35193071      -5.44864933      -0.39698900
C       -7.19915440      -5.83254072       0.65156528
C       -8.50602283      -6.25161263       0.38406161
C       -8.97814485      -6.28053919      -0.92702541
C       -8.14784326      -5.87182531      -1.96833174
Cl      -8.73563651      -5.90377965      -3.58634111
C       -6.84548144      -5.44524344      -1.71207229
C       -4.16169590      -5.27063798       0.91856590
C       -3.10207241      -4.39653123       0.74529019
C       -4.31264087      -6.27430220       1.97732214
C       -4.68848961      -7.59445512       1.68791194
C       -4.80905185      -8.54076966       2.70941931
C       -4.52452831      -8.18824531       4.02732080
C       -4.11960660      -6.88812746       4.31725037
Br      -3.69787205      -6.41212190       6.09836813
C       -4.01562638      -5.93353366       3.30532518
H       -0.29693615       0.09835086      -2.71632491
H       -1.74593744      -1.32393607      -4.13493262
H       -3.14182398      -3.08925816      -3.11683671
H       -1.64113820      -2.00600847       0.78207346
H       -6.88895618      -5.77799963       1.69119610
H       -9.15927001      -6.54577119       1.20256562
H       -9.99370065      -6.61006706      -1.12877757
H       -6.21425580      -5.13372362      -2.54210157
H       -2.25288645      -4.29138162       1.40603755
H       -4.89104477      -7.90347799       0.66500050
H       -5.11711274      -9.55779919       2.47375329
H       -4.61017190      -8.93248447       4.81499894
H       -3.70025037      -4.92307244       3.55200634
C       -0.88203633       0.88203633       0.88203633
C       -0.89066502       0.68972773       2.26138696
C       -1.70567852       1.48891150       3.06053851
C       -2.50697004       2.47701704       2.47948219
C       -2.49677744       2.68161329       1.09107221
C       -1.67606591       1.86927459       0.29576062
C       -3.34252256       3.71072585       0.47969131
N       -4.44204836       4.17966663       1.07804099
N       -5.04952008       4.98096401       0.16039849
C       -6.39256850       5.40034493       0.40465561
C       -7.25130186       5.76886993      -0.64004196
C       -8.55933325       6.17955865      -0.36531806
C       -9.02109701       6.21532793       0.94928451
C       -8.17914143       5.82178687       1.98707201
Cl      -8.75412083       5.86214456       3.60949189
C       -6.87546478       5.40364369       1.72368870
C       -4.21162956       5.22930569      -0.92716728
C       -3.14358036       4.36519989      -0.75546679
C       -4.37924548       6.22308944      -1.99271399
C       -4.76345983       7.54247855      -1.71090558
C       -4.89992915       8.47946365      -2.73899060
C       -4.62317837       8.11855109      -4.05627665
C       -4.21005987       6.81942574      -4.33900192
Br      -3.79883594       6.33238340      -6.11959352
C       -4.09018143       5.87395051      -3.32029708
H       -0.27423486      -0.07867575       2.71935109
H       -1.72326404       1.34336609       4.13817601
H       -3.14159837       3.08905866       3.11726182
H       -1.66362326       1.98630430      -0.78485435
H       -6.94905639       5.70838798      -1.68168465
H       -9.22152070       6.46178777      -1.18083290
H      -10.03763729       6.53829132       1.15661666
H       -6.23506358       5.10397065       2.55104677
H       -2.29891906       4.26153201      -1.42222054
H       -4.96027076       7.85815704      -0.68890554
H       -5.21433120       9.49585883      -2.50903140
H       -4.72120640       8.85565442      -4.84920339
H       -3.76860682       4.86409268      -3.56138303
C        0.88203633      -0.88203633       0.88203633
C        1.15301607      -2.19252936       0.49623429
C        1.94838953      -2.99683570       1.30990329
C        2.47062935      -2.48902030       2.50381962
C        2.20831451      -1.16678323       2.89436520
C        1.40352739      -0.36729206       2.07028166
C        2.74751800      -0.63585835       4.14956338
N        3.10720937      -1.42838764       5.16415896
N        3.39557644      -0.59449850       6.20080764
C        3.53624041      -1.15433778       7.50699085
C        3.32713806      -0.38990823       8.66308355
C        3.47817385      -0.96830136       9.92709863
C        3.82790308      -2.31230892      10.04549746
C        4.00784993      -3.08188422       8.89826616
Cl       4.43478310      -4.74316085       9.04781333
C        3.85264212      -2.51706963       7.63308542
C        3.46986801       0.73248187       5.77638183
C        2.99183738       0.71563978       4.47711586
C        3.99172524       1.89100403       6.50889972
C        5.19789922       1.82493011       7.22206369
C        5.68747876       2.94569371       7.89861715
C        4.99509649       4.15389162       7.84424794
C        3.81409512       4.23507558       7.11146415
Br       2.88784652       5.88049195       7.00427125
C        3.30971525       3.11545311       6.44957272
H        0.74727364      -2.59519563      -0.42755906
H        2.16179035      -4.02307881       1.01993698
H        3.08562604      -3.13195252       3.13034029
H        1.16184320       0.65315535       2.35638536
H        3.00535513       0.64660659       8.61701119
H        3.31191801      -0.37022274      10.82033483
H        3.94674401      -2.75525448      11.03054678
H        4.00156908      -3.13725780       6.75125412
H        2.88277448       1.57546134       3.83091738
H        5.77199485       0.90195358       7.25948098
H        6.61642427       2.87702980       8.46176417
H        5.38763240       5.02411596       8.36414099
H        2.38484899       3.19819696       5.88466443
