182
Properties=species:S:1:pos:R:3 pbc="F F F"
C        1.79264693       1.79264693      -1.79264693
C        3.07186473       1.36422993      -2.13664861
C        3.87738100       2.17404463      -2.94360759
C        3.42346625       3.42041556      -3.40460660
C        2.12554490       3.82190417      -3.05054704
C        1.31210726       3.01701637      -2.24777663
C        4.27943746       4.27862937      -4.24987729
C        5.61838148       4.34594950      -4.10871169
C        6.07314291       5.31081982      -5.09278393
C        7.39317540       5.95746919      -5.09209191
C        7.53487076       7.35041631      -5.12351377
C        8.80116874       7.94099990      -5.07692967
C        9.93483992       7.13559704      -4.98908192
C        9.81653320       5.74860263      -4.95156400
C        8.54826780       5.16489645      -5.00255799
N        4.94145752       5.74632342      -5.77878499
N        3.70868883       5.06381609      -5.20278296
C        4.82643693       6.57315855      -6.92592751
C        3.77069370       7.51038315      -6.94198493
C        3.55756209       8.37866208      -8.01574869
C        4.39831507       8.32548436      -9.11919700
C        5.43676745       7.39520578      -9.14506592
C        5.65000929       6.51802688      -8.06552883
Cl       6.88324998       5.32297301      -8.30685149
H        3.45290135       0.40752087      -1.79683197
H        4.86567548       1.82334528      -3.22766552
H        1.75168407       4.77897234      -3.40793728
H        0.31468567       3.35957447      -1.99358196
H        6.24519454       3.84487438      -3.39622110
H        6.64510917       7.97425023      -5.17200479
H        8.88279800       9.02258697      -5.10289550
H       10.69282568       5.11219974      -4.88290576
H        8.45350378       4.08162461      -4.98123736
H        3.10886861       7.55124683      -6.07831435
H        2.73071696       9.08085311      -7.98068898
H        4.23500220       8.98685298      -9.96385294
H        6.07149187       7.33246976     -10.02406121
C       11.24007512       7.74087243      -4.92905871
C       12.33320959       8.24779056      -4.87878926
Br      14.10071559       9.06743432      -4.79750782
C       -1.79264693      -1.79264693      -1.79264693
C       -1.32763419      -3.03761257      -2.20749651
C       -2.13691355      -3.84262777      -3.01549191
C       -3.40851618      -3.41232890      -3.42764333
C       -3.85547772      -2.15696842      -2.98554997
C       -3.05489347      -1.34755872      -2.17444807
C       -4.25856551      -4.26065848      -4.28872014
C       -3.75909340      -5.06910741      -5.24484186
C       -4.90697194      -5.69515729      -5.87461742
C       -4.88381366      -6.38827635      -7.17064649
C       -5.75586955      -6.04243815      -8.21049314
C       -5.68287380      -6.68765216      -9.44857234
C       -4.72606948      -7.67961757      -9.65383183
C       -3.84586761      -8.03564858      -8.63518364
C       -3.92698593      -7.38963258      -7.39910372
N       -6.03656954      -5.21311638      -5.21688001
N       -5.61054067      -4.22040138      -4.14434584
C       -7.39742015      -5.59791313      -5.33018970
C       -8.36380417      -4.56946197      -5.28979564
C       -9.73349734      -4.82563422      -5.39284130
C      -10.17907755      -6.13320488      -5.53071400
C       -9.25178956      -7.17445633      -5.55079326
C       -7.87235000      -6.91760208      -5.44361292
Cl      -6.85794469      -8.31992267      -5.33520712
H       -0.35037107      -3.39941140      -1.90747173
H       -1.77754406      -4.82280736      -3.31633486
H       -4.84268268      -1.81131443      -3.28459659
H       -3.43261473      -0.38304846      -1.85217891
H       -2.73705103      -5.20831577      -5.54092321
H       -6.48739418      -5.25347081      -8.05049919
H       -6.37053235      -6.40057993     -10.23716819
H       -3.09684245      -8.80653109      -8.78455763
H       -3.24581169      -7.67121600      -6.59933806
H       -8.01581275      -3.54368391      -5.17893314
H      -10.43705006      -4.00006358      -5.35514542
H      -11.24112658      -6.34491299      -5.59966854
H       -9.60525786      -8.19873151      -5.62403346
C       -4.64032827      -8.33808860     -10.93158938
C       -4.56852001      -8.88955809     -12.00171132
Br      -4.45241212      -9.78123761     -13.73200800
C       -1.79264693       1.79264693       1.79264693
C       -3.16138850       1.54804558       1.86330919
C       -3.96652028       2.35753252       2.67098042
C       -3.42062476       3.42328887       3.40457478
C       -2.03590704       3.63990022       3.32218886
C       -1.22306619       2.83320600       2.52062807
C       -4.27439549       4.28302739       4.25052125
C       -5.54316324       4.60325836       3.92662107
C       -6.01482505       5.47621358       4.98570803
C       -7.20393902       6.33628781       4.90250967
C       -7.14112377       7.71233088       5.15534618
C       -8.27821778       8.51524011       5.02564041
C       -9.48568624       7.94218830       4.63164434
C       -9.56932318       6.57692640       4.37045026
C       -8.43006577       5.77971547       4.50594099
N       -4.96850136       5.60097648       5.89708809
N       -3.76894381       4.80661709       5.39972699
C       -4.93442468       6.21592703       7.17517127
C       -3.77076198       6.94153596       7.51076383
C       -3.62223095       7.59056227       8.73917963
C       -4.64120600       7.52223191       9.67955852
C       -5.79432958       6.79415786       9.38855171
C       -5.94327750       6.13734198       8.15294552
Cl      -7.36283900       5.15363807       7.99659740
H       -3.61461534       0.73359096       1.30904789
H       -5.03009128       2.14666056       2.73993443
H       -1.59268084       4.45335552       3.89255733
H       -0.15703038       3.03013778       2.48067395
H       -6.10310579       4.33042957       3.05275465
H       -6.19109730       8.15705286       5.44321402
H       -8.20207770       9.57851165       5.22769113
H      -10.50457768       6.12060323       4.06275027
H       -8.49448050       4.71182265       4.31006260
H       -2.96965458       6.99362209       6.77515312
H       -2.70725965       8.13491664       8.95008276
H       -4.53179951       8.01246286      10.64144575
H       -6.57497029       6.71377920      10.13927334
C      -10.65616151       8.76818788       4.48565686
C      -11.63643455       9.45996252       4.36339235
Br     -13.22145314      10.57850362       4.16570097
C        1.79264693      -1.79264693       1.79264693
C        1.28964629      -2.99083282       2.29226416
C        2.09906664      -3.79592065       3.10004593
C        3.40930418      -3.41139421       3.42779001
C        3.89341589      -2.20323929       2.90134093
C        3.09272385      -1.39436016       2.08981626
C        4.25999735      -4.25919458       4.28875220
C        3.77125780      -4.99400378       5.30778110
C        4.91803917      -5.64640371       5.91230378
C        4.92729943      -6.27394049       7.24149658
C        5.86680214      -5.92298809       8.21901061
C        5.82571901      -6.50300748       9.49037180
C        4.83372255      -7.43395278       9.79184355
C        3.88667861      -7.79363322       8.83638800
C        3.93600473      -7.21313005       7.56658746
N        6.03473063      -5.25479949       5.17703581
N        5.60324649      -4.29475665       4.07728475
C        7.37937208      -5.70235308       5.24379782
C        8.39107156      -4.72752359       5.10446662
C        9.75023420      -5.04771590       5.15402275
C       10.13847108      -6.36804679       5.33647856
C        9.16411920      -7.35861542       5.45430453
C        7.79505698      -7.03744729       5.40106073
Cl       6.70980337      -8.38998122       5.41328987
H        0.28203690      -3.31656844       2.05864885
H        1.70846172      -4.74085946       3.46736509
H        4.91011185      -1.89416148       3.13432036
H        3.49978795      -0.46702156       1.70103258
H        2.76005411      -5.06658420       5.65965170
H        6.62655558      -5.18089718       7.98391143
H        6.56566236      -6.21345560      10.22916252
H        3.10980273      -8.51730788       9.06082056
H        3.20222735      -7.49807667       6.81606173
H        8.08792424      -3.69194542       4.95856013
H       10.49007314      -4.26177361       5.04041231
H       11.19116584      -6.62989284       5.36464944
H        9.47088984      -8.39479287       5.56234012
C        4.78130136      -8.02462907      11.10407583
C        4.73739860      -8.51932046      12.20307036
Br       4.66641157      -9.31919460      13.98005156
C       -0.00445707       0.01189536      -1.78238275
H       -0.66409135       0.67374010      -2.43557963
H        0.65740317      -0.63156657      -2.45157240
C       -0.90989263      -0.90692880      -0.91072765
C        0.90977584       0.90977584      -0.90977584
C       -0.00465871       1.77757030       0.00794375
H       -0.66225468       2.44313916      -0.64384735
H        0.64322798       2.43503045       0.67728295
C       -1.78241447       0.00034974      -0.00472694
H       -2.45427497      -0.65498947       0.64260836
H       -2.43311707       0.67328779      -0.65473579
C       -0.91132561       0.90220522       0.91563759
C       -0.01476271      -0.02253852       1.78660255
H       -0.67934791      -0.69751639       2.42135241
H        0.63392994       0.61504881       2.47327442
C        0.01484550      -1.77751727      -0.01636693
H        0.67870853      -2.42144646      -0.68295456
H       -0.62264859      -2.45592969       0.64226336
C        1.78714474       0.01002794       0.00389507
H        2.44202412       0.67113390       0.66197326
H        2.45385902      -0.65136977      -0.64189061
C        0.91606151      -0.90478549       0.90901405
