174
Properties=species:S:1:pos:R:3 pbc="F F F"
C        1.79264693       1.79264693      -1.79264693
C        3.07186473       1.36422993      -2.13664861
C        3.87738100       2.17404463      -2.94360759
C        3.42346625       3.42041556      -3.40460660
C        2.12554490       3.82190417      -3.05054704
C        1.31210726       3.01701637      -2.24777663
C        4.27943746       4.27862937      -4.24987729
C        5.61838148       4.34594950      -4.10871169
C        6.07314291       5.31081982      -5.09278393
C        7.39317540       5.95746919      -5.09209191
C        7.53487076       7.35041631      -5.12351377
C        8.80116874       7.94099990      -5.07692967
C        9.93483992       7.13559704      -4.98908192
Br      11.64949106       7.93073046      -4.91023109
C        9.81653320       5.74860263      -4.95156400
C        8.54826780       5.16489645      -5.00255799
N        4.94145752       5.74632342      -5.77878499
N        3.70868883       5.06381609      -5.20278296
C        4.82643693       6.57315855      -6.92592751
C        3.77069370       7.51038315      -6.94198493
C        3.55756209       8.37866208      -8.01574869
C        4.39831507       8.32548436      -9.11919700
C        5.43676745       7.39520578      -9.14506592
C        5.65000929       6.51802688      -8.06552883
Cl       6.88324998       5.32297301      -8.30685149
H        3.45290135       0.40752087      -1.79683197
H        4.86567548       1.82334528      -3.22766552
H        1.75168407       4.77897234      -3.40793728
H        0.31468567       3.35957447      -1.99358196
H        6.24519454       3.84487438      -3.39622110
H        6.64510917       7.97425023      -5.17200479
H        8.88279800       9.02258697      -5.10289550
H       10.69282568       5.11219974      -4.88290576
H        8.45350378       4.08162461      -4.98123736
H        3.10886861       7.55124683      -6.07831435
H        2.73071696       9.08085311      -7.98068898
H        4.23500220       8.98685298      -9.96385294
H        6.07149187       7.33246976     -10.02406121
C       -1.79264693      -1.79264693      -1.79264693
C       -1.30181808      -3.00740817      -2.26351702
C       -2.11119213      -3.81246935      -3.07137174
C       -3.40903047      -3.41170816      -3.42774978
C       -3.88125504      -2.18684020      -2.92990087
C       -3.08060493      -1.37777908      -2.11851626
C       -4.25950261      -4.25968408      -4.28875744
C       -3.76635634      -5.01979988      -5.28688646
C       -4.91379794      -5.66311394      -5.89983478
C       -4.91149523      -6.31293360      -7.21830768
C       -5.82840462      -5.96299543      -8.21740079
C       -5.77593188      -6.56516949      -9.47799693
C       -4.79501436      -7.51757587      -9.74692865
Br      -4.71053206      -8.32379360     -11.45612695
C       -3.87034535      -7.87674109      -8.76961339
C       -3.93102439      -7.27397204      -7.51072580
N       -6.03580957      -5.24042771      -5.19032866
N       -5.60651230      -4.26916467      -4.09961091
C       -7.38656638      -5.66649335      -5.27246324
C       -8.38372192      -4.67264449      -5.16669536
C       -9.74711658      -4.97084942      -5.23400686
C      -10.15465606      -6.28741347      -5.40092690
C       -9.19546509      -7.29600623      -5.48556783
C       -7.82221876      -6.99692865      -5.41441759
Cl      -6.76008324      -8.36744233      -5.38554890
H       -0.30394657      -3.34593379      -2.00737383
H       -1.73063136      -4.76992410      -3.41613081
H       -4.88850461      -1.86480480      -3.18528428
H       -3.47827879      -0.43727894      -1.75228438
H       -2.75078861      -5.11526470      -5.62023670
H       -6.57924819      -5.20440454      -8.00771145
H       -6.49837742      -6.27589115     -10.23401190
H       -3.10224932      -8.61702595      -8.96865591
H       -3.21486104      -7.55834359      -6.74316112
H       -8.06548142      -3.63995037      -5.03299800
H      -10.47527262      -4.17081997      -5.14616647
H      -11.21103511      -6.53205222      -5.44262078
H       -9.51797167      -8.32859446      -5.58145670
C       -1.79264693       1.79264693       1.79264693
C       -3.15052090       1.50966816       1.91255422
C       -3.95571075       2.31922908       2.72009340
C       -3.42118464       3.42279365       3.40451012
C       -2.04683899       3.67792399       3.27323313
C       -1.23385086       2.87157048       2.47147893
C       -4.27537165       4.28228649       4.25028598
C       -5.56245793       4.55448689       3.95609785
C       -6.02894275       5.44511018       5.00269373
C       -7.24585288       6.26642247       4.93046115
C       -7.21781179       7.65083974       5.14014931
C       -8.38237979       8.41516099       5.02155753
C       -9.58288485       7.79457011       4.68206393
Br     -11.15812571       8.82698012       4.50534679
C       -9.63230852       6.42004732       4.46434398
C       -8.46558175       5.66166121       4.58847927
N       -4.96026001       5.62890743       5.87739849
N       -3.75222665       4.85573630       5.36732494
C       -4.90702464       6.28355043       7.13494791
C       -3.75670878       7.05346081       7.41289218
C       -3.59164949       7.74403272       8.61629064
C       -4.57958273       7.67428455       9.58912915
C       -5.71796534       6.90359414       9.35547967
C       -5.88341617       6.20500660       8.14514223
Cl      -7.27613325       5.17511826       8.06182295
H       -3.59483693       0.66544157       1.39697570
H       -5.00977996       2.07898650       2.82791981
H       -1.61200398       4.52134882       3.80524089
H       -0.17602728       3.09884940       2.39296542
H       -6.13954135       4.23839891       3.10834974
H       -6.27373427       8.13229141       5.38533850
H       -8.33293596       9.48593068       5.18941384
H      -10.56186216       5.92683619       4.19923282
H       -8.50298521       4.58681323       4.42656730
H       -2.97984557       7.10677686       6.65180736
H       -2.68794657       8.32161839       8.78269410
H       -4.45667586       8.19685798      10.53217428
H       -6.47306184       6.82308505      10.13187595
C        1.79264693      -1.79264693       1.79264693
C        1.27325833      -2.96540560       2.33407934
C        2.08274324      -3.77053592       3.14175406
C        3.40971433      -3.41094317       3.42783091
C        3.90979888      -2.22840332       2.85979391
C        3.10903589      -1.41979272       2.04807166
C        4.26073396      -4.25849544       4.28871472
C        3.77982508      -4.95587673       5.33734086
C        4.92511235      -5.62177035       5.92986396
C        4.95224575      -6.21681687       7.27367388
C        5.92409406      -5.86572310       8.21898368
C        5.90062858      -6.41343272       9.50503701
C        4.89410187      -7.31173956       9.85367744
Br       4.84938878      -8.04356382      11.59750001
C        3.91505464      -7.67083132       8.93081387
C        3.94680880      -7.12280581       7.64610762
N        6.03231786      -5.27614132       5.15810675
N        5.59702880      -4.33267878       4.04558030
C        7.36691855      -5.75533126       5.20327317
C        8.39824747      -4.80971321       5.01510108
C        9.75003025      -5.16239996       5.03954265
C       10.11045690      -6.48717174       5.24536779
C        9.11553367      -7.44997397       5.41153151
C        7.75378910      -7.09615486       5.38362105
Cl       6.63659124      -8.42050623       5.45597700
H        0.25250946      -3.27149989       2.13324484
H        1.67854458      -4.69622307       3.54191862
H        4.93920766      -1.93919879       3.06018725
H        3.52872024      -0.51262780       1.62649406
H        2.77624427      -4.99463461       5.71541112
H        6.69557896      -5.14874945       7.94703577
H        6.66559151      -6.12453391      10.21815505
H        3.12663978      -8.36923243       9.19205897
H        3.18782749      -7.40754144       6.92099682
H        8.11684196      -3.77075394       4.85083390
H       10.50570935      -4.39814902       4.88840069
H       11.15684417      -6.77442532       5.25443863
H        9.39960131      -8.49054394       5.53787758
C       -0.00445707       0.01189536      -1.78238275
H       -0.66409135       0.67374010      -2.43557963
H        0.65740317      -0.63156657      -2.45157240
C       -0.90989263      -0.90692880      -0.91072765
C        0.90977584       0.90977584      -0.90977584
C       -0.00465871       1.77757030       0.00794375
H       -0.66225468       2.44313916      -0.64384735
H        0.64322798       2.43503045       0.67728295
C       -1.78241447       0.00034974      -0.00472694
H       -2.45427497      -0.65498947       0.64260836
H       -2.43311707       0.67328779      -0.65473579
C       -0.91132561       0.90220522       0.91563759
C       -0.01476271      -0.02253852       1.78660255
H       -0.67934791      -0.69751639       2.42135241
H        0.63392994       0.61504881       2.47327442
C        0.01484550      -1.77751727      -0.01636693
H        0.67870853      -2.42144646      -0.68295456
H       -0.62264859      -2.45592969       0.64226336
C        1.78714474       0.01002794       0.00389507
H        2.44202412       0.67113390       0.66197326
H        2.45385902      -0.65136977      -0.64189061
C        0.91606151      -0.90478549       0.90901405
