153
Properties=species:S:1:pos:R:3 pbc="F F F"
C        0.00000000       0.00000000       0.00000000
C        0.88274291       0.88274291      -0.88274291
C        2.16196071       0.45432591      -1.22674459
C        2.96747697       1.26414061      -2.03370357
C        2.51356222       2.51051154      -2.49470258
C        1.21564088       2.91200015      -2.14064301
C        0.40220324       2.10711235      -1.33787261
C        3.36953344       3.36872534      -3.33997327
C        4.70847745       3.43604548      -3.19880766
C        5.16323888       4.40091579      -4.18287991
C        6.48327138       5.04756516      -4.18218788
C        6.62496674       6.44051229      -4.21360974
C        7.89126471       7.03109587      -4.16702565
C        9.02493590       6.22569301      -4.07917790
Br      10.73958703       7.02082644      -4.00032707
C        8.90662918       4.83869861      -4.04165997
C        7.63836377       4.25499243      -4.09265396
N        4.03155349       4.83641940      -4.86888097
N        2.79878481       4.15391207      -4.29287894
C        3.91653290       5.66325452      -6.01602348
C        2.86078967       6.60047913      -6.03208090
C        2.64765806       7.46875806      -7.10584466
C        3.48841105       7.41558033      -8.20929298
C        4.52686342       6.48530176      -8.23516190
C        4.74010527       5.60812286      -7.15562480
Cl       5.97334595       4.41306898      -7.39694746
H        2.54299732      -0.50238315      -0.88692795
H        3.95577146       0.91344125      -2.31776149
H        0.84178005       3.86906832      -2.49803326
H       -0.59521835       2.44967045      -1.08367793
H        5.33529051       2.93497035      -2.48631707
H        5.73520514       7.06434620      -4.26210076
H        7.97289398       8.11268295      -4.19299148
H        9.78292166       4.20229571      -3.97300173
H        7.54359975       3.17172058      -4.07133334
H        2.19896458       6.64134281      -5.16841033
H        1.82081294       8.17094909      -7.07078495
H        3.32509817       8.07694896      -9.05394891
H        5.16158784       6.42256573      -9.11415718
C       -0.88274291      -0.88274291      -0.88274291
C       -0.40489442      -2.11343919      -1.32469760
C       -1.21422032      -2.91847565      -2.13262518
C       -2.49885785      -2.50212306      -2.51779542
C       -2.95838781      -1.26117461      -2.04872162
C       -2.15777430      -0.45193257      -1.23748133
C       -3.34911045      -3.35027963      -3.37884198
C       -2.85232707      -4.13550455      -4.35549898
C       -4.00013395      -4.76983492      -4.97706572
C       -3.98679056      -5.44202428      -6.28420959
C       -4.88068420      -5.09385308      -7.30455148
C       -4.81734332      -5.71826450      -8.55377841
C       -3.84845700      -6.69146175      -8.78988807
Br      -3.74906774      -7.52805721     -10.48361559
C       -2.94659786      -7.04935958      -7.79103032
C       -3.01810385      -6.42424472      -6.54366159
N       -5.12651862      -4.31631236      -4.29402287
N       -4.69907173      -3.33390878      -3.21259531
C       -6.48278533      -4.72097720      -4.39204838
C       -7.46445746      -3.70886328      -4.32002896
C       -8.83142363      -3.98523870      -4.40559845
C       -9.25852819      -5.29743260      -4.55732357
C       -8.31541629      -6.32328789      -4.60862290
C       -6.93865083      -6.04613993      -4.51906217
Cl      -5.90071096      -7.43360235      -4.44904910
H        0.58260832      -2.46424900      -1.04590144
H       -0.84433148      -3.88793391      -2.45470881
H       -3.95556031      -0.92667983      -2.32664149
H       -2.54542143       0.50123002      -0.89393862
H       -1.83308358      -4.25368806      -4.66980631
H       -5.62187787      -4.31929080      -7.12048344
H       -5.52194653      -5.42984969      -9.32677218
H       -2.18802282      -7.80572894      -7.96446734
H       -2.31989116      -6.70745141      -5.75931111
H       -7.13091645      -2.67952581      -4.19827546
H       -9.54718253      -3.17171169      -4.34365276
H      -10.31808215      -5.52497498      -4.61293891
H       -8.65385521      -7.35180215      -4.69265339
C       -0.88274291       0.88274291       0.88274291
C       -1.89769262       0.30484445       1.64049412
C       -2.70406496       1.11478985       2.44646634
C       -2.51668976       2.50561298       2.49647360
C       -1.47900978       3.05940634       1.72986792
C       -0.66564197       2.25687956       0.92466666
C       -3.37550611       3.36080893       3.34191701
C       -4.68177420       3.10565328       3.55590311
C       -5.16313658       4.18252303       4.40137497
C       -6.57830981       4.51372979       4.62098482
C       -7.08024528       5.80185053       4.39699296
C       -8.43941349       6.07924458       4.57072816
C       -9.30641252       5.06111007       4.96228422
Br     -11.14889166       5.42818769       5.18366119
C       -8.82934222       3.77204415       5.18560138
C       -7.46925428       3.50271490       5.01404098
N       -4.07307210       5.01371877       4.65006299
N       -2.85103193       4.47514319       3.91940070
C       -3.94751387       6.12410069       5.52419635
C       -3.20431792       7.23048041       5.05855136
C       -3.01307204       8.38059262       5.82859612
C       -3.55794453       8.45186079       7.10347904
C       -4.27797910       7.36692807       7.60241990
C       -4.46813956       6.20687147       6.82884190
Cl      -5.25480637       4.89031961       7.63823642
H       -2.06923569      -0.76579116       1.62409758
H       -3.47904977       0.65471620       3.05320823
H       -1.31062827       4.13361194       1.76464141
H        0.12636955       2.71925863       0.34524095
H       -5.28515343       2.31141367       3.16001084
H       -6.40183243       6.58763238       4.07218730
H       -8.80213599       7.08580516       4.39062724
H       -9.49593120       2.97183450       5.49045341
H       -7.09275876       2.49857297       5.19532194
H       -2.77410063       7.17477443       4.05984266
H       -2.43240885       9.20433942       5.42579872
H       -3.40575432       9.33531817       7.71492355
H       -4.67361989       7.41187927       8.61281159
C        0.88274291      -0.88274291       0.88274291
C        0.36924315      -2.06510599       1.40868207
C        1.17870452      -2.87022005       2.21639658
C        2.49965667      -2.50120549       2.51791418
C        2.99400633      -1.30899335       1.96528436
C        2.19327102      -0.50028272       1.15363446
C        3.35055465      -3.34884867       3.37882873
C        2.86654675      -4.06018351       4.41660034
C        4.01246185      -4.72103889       5.01353385
C        4.03282636      -5.32813444       6.35206362
C        4.99276217      -4.97690751       7.30941909
C        4.96262292      -5.53660014       8.59016317
C        3.96125945      -6.44719782       8.92134954
Br       3.90739855      -7.19538872      10.65795327
C        2.99399447      -6.80669382       7.98629947
C        3.03240653      -6.24662225       6.70698138
N        5.12342512      -4.35826901       4.25515973
N        4.68963264      -3.40862708       3.14731610
C        6.46190541      -4.82568424       4.30822126
C        7.48617354      -3.86902778       4.13814838
C        8.84086094      -4.20960357       4.17179627
C        9.21155462      -5.53287435       4.36885539
C        8.22404736      -6.50617994       4.51709978
C        6.85942018      -6.16453069       4.47990206
Cl       5.75382412      -7.49960648       4.52993179
H       -0.64677991      -2.37862200       1.19570003
H        0.77940121      -3.80318579       2.60438720
H        4.01884775      -1.01228280       2.17775107
H        2.60842382       0.41450003       0.74420624
H        1.85996418      -4.11154768       4.78506607
H        5.76007126      -4.25047216       7.05110868
H        5.71837582      -5.24731317       9.31287942
H        2.20968363      -7.51461398       8.23392150
H        2.28270569      -6.53158175       5.97236624
H        7.19674187      -2.83120804       3.98076781
H        9.59083145      -3.43714864       4.03456689
H       10.26041083      -5.81066141       4.38492380
H        8.51650095      -7.54523762       4.63657219
