174
Properties=species:S:1:pos:R:3 pbc="F F F"
C        1.79220923       1.79220923      -1.79220923
C        1.42712349       2.02653274      -3.11636518
C        2.23330944       2.82925976      -3.92160251
C        3.40395265       3.38909776      -3.40225841
C        3.77945050       3.15361120      -2.07054180
C        2.95617374       2.35214459      -1.26613304
C        5.00787889       3.73251103      -1.52502243
N        5.16491828       3.94150706      -0.21495533
N        6.35818037       4.58506124      -0.08119618
C        7.09119650       4.53479099      -1.26972808
C        6.18555952       4.08356394      -2.21774346
C        8.52590198       4.79371132      -1.46961255
C        8.96918739       5.34339435      -2.68582663
C       10.32633128       5.57468474      -2.92302319
C       11.26456287       5.26714045      -1.94255830
C       10.83886660       4.71372171      -0.73721113
Br      12.10981328       4.30736731       0.60290110
C        9.48518083       4.45749748      -0.50488191
C        6.68668657       5.10979556       1.20133335
C        6.23425598       4.38552272       2.32440375
C        6.55480126       4.79665156       3.61881443
C        7.31532210       5.94360960       3.81053985
C        7.72278561       6.69799067       2.70904834
C        7.39592602       6.30045040       1.40309961
Cl       7.74639420       7.44804444       0.15747297
H        0.51903075       1.59272083      -3.52666934
H        1.94939673       3.02252440      -4.95314308
H        4.00794871       4.02259992      -4.04746166
H        3.23049392       2.16318769      -0.23043094
H        6.38784657       3.93327013      -3.26928957
H        8.25625664       5.60738277      -3.46404006
H       10.64705033       5.99844133      -3.87123093
H       12.31810809       5.45922813      -2.12686264
H        9.19033426       3.99407786       0.43261952
H        5.64613689       3.47668034       2.19974740
H        6.20890483       4.21887425       4.47288100
H        7.56622252       6.26877504       4.81769162
H        8.27161210       7.62184211       2.87827655
C       -1.79220923      -1.79220923      -1.79220923
C       -3.14348572      -1.94039384      -1.48614184
C       -3.94745438      -2.74715036      -2.28956697
C       -3.39650912      -3.40735837      -3.39144133
C       -2.03529681      -3.26555455      -3.70275214
C       -1.23725885      -2.44385333      -2.89333918
C       -1.45324304      -3.96049309      -4.85167622
N       -0.34946699      -3.51427792      -5.45763576
N       -0.16275725      -4.32601109      -6.53566945
C       -0.97926770      -5.45733658      -6.45911129
C       -1.87541374      -5.17085429      -5.44059890
C       -0.86321193      -6.71973032      -7.20628361
C       -2.02444543      -7.44403985      -7.52992308
C       -1.95122728      -8.66125376      -8.21155817
C       -0.71316233      -9.17188574      -8.58921356
C        0.44491540      -8.46833218      -8.26638266
Br       2.12835130      -9.15242507      -8.79020572
C        0.37840584      -7.26295137      -7.56301469
C        0.83737227      -3.95380078      -7.47872027
C        1.98480784      -3.30691537      -6.97326742
C        3.03873359      -2.95422811      -7.81714386
C        2.95496731      -3.22618335      -9.17717580
C        1.80192808      -3.81684116      -9.69681486
C        0.73073078      -4.16490653      -8.85910106
Cl      -0.72175617      -4.65548131      -9.65972818
H       -3.57755065      -1.43111419      -0.62975609
H       -5.00429057      -2.86007233      -2.06070132
H       -4.04834913      -4.01978118      -4.00987998
H       -0.18115489      -2.31969580      -3.12326187
H       -2.67807659      -5.81105091      -5.10127878
H       -3.00636750      -7.06101919      -7.26029277
H       -2.86148828      -9.20553486      -8.44969945
H       -0.66150485     -10.11342341      -9.12927060
H        1.30235258      -6.75648003      -7.29766515
H        2.07899497      -3.09315258      -5.90891222
H        3.92165817      -2.46810819      -7.40844806
H        3.77329559      -2.95161722      -9.83898432
H        1.72984636      -3.97425622     -10.77076779
C       -1.79220923       1.79220923       1.79220923
C       -2.09653623       1.38417313       3.08931204
C       -2.90331668       2.18787212       3.89298291
C       -3.40771131       3.39253238       3.39506513
C       -3.10828963       3.80725737       2.08805651
C       -2.28779211       2.99565694       1.29100232
C       -3.63997330       5.06465503       1.56078401
N       -3.03768093       5.71945708       0.56424266
N       -3.72957099       6.88306289       0.41180391
C       -4.93678081       6.84455730       1.11437747
C       -4.82890698       5.72825737       1.92970257
C       -6.11140464       7.71743666       0.96038455
C       -6.91315963       8.00606436       2.07918438
C       -8.05289399       8.80583619       1.96530903
C       -8.40637025       9.33850135       0.72939003
C       -7.62542694       9.05240184      -0.38802934
Br      -8.09501046       9.78592041      -2.06665138
C       -6.49868878       8.23281630      -0.28394486
C       -3.18099639       7.87009336      -0.45594097
C       -2.47333235       7.40747251      -1.58542992
C       -1.94764535       8.30279730      -2.51780426
C       -2.10568750       9.67006341      -2.32735907
C       -2.75689864      10.14082641      -1.18599711
C       -3.27912887       9.24964541      -0.23549747
Cl      -3.83530526       9.96297545       1.23868495
H       -1.70888951       0.44775594       3.48177548
H       -3.13745861       1.87887932       4.90872628
H       -4.02341096       4.00745110       4.04714823
H       -2.04248860       3.30454836       0.27707560
H       -5.57098053       5.38303610       2.63638965
H       -6.65196228       7.61535917       3.06035801
H       -8.65945224       9.01439804       2.84287231
H       -9.28733049       9.96939164       0.64747673
H       -5.93068883       8.00213456      -1.18103079
H       -2.34596071       6.33988527      -1.76277615
H       -1.41639679       7.92835334      -3.38985205
H       -1.69622212      10.37169355      -3.05060972
H       -2.82542642      11.21443321      -1.02468197
C        1.79220923      -1.79220923       1.79220923
C        2.94688519      -2.36272959       1.26040662
C        3.75011909      -3.16943081       2.06462180
C        3.39284804      -3.40776508       3.39469570
C        2.22892105      -2.83943482       3.93524762
C        1.43277858      -2.02157043       3.12010237
C        1.84789568      -3.09202849       5.32548818
N        1.06984608      -2.24566326       6.00587133
N        1.01624250      -2.73021311       7.27798218
C        1.52396237      -4.03046732       7.34128588
C        2.14933243      -4.21927065       6.11826384
C        1.35195672      -5.02710478       8.41016435
C        2.37779450      -5.95443660       8.66617726
C        2.23773920      -6.93408021       9.65221980
C        1.07005700      -6.99791823      10.40628639
C        0.04303071      -6.09076499      10.15600375
Br      -1.53974881      -6.16578883      11.18823946
C        0.16839278      -5.12498980       9.15417764
C        0.41146693      -1.91048927       8.27319258
C       -0.66708586      -1.09790700       7.86455381
C       -1.35342125      -0.30279901       8.78326063
C       -0.96276326      -0.29448511      10.11667000
C        0.13674650      -1.05279737      10.52218407
C        0.84194841      -1.84695647       9.60437193
Cl       2.32004361      -2.53340344      10.18351862
H        3.22925909      -2.18269251       0.22646933
H        4.65667362      -3.61062984       1.65776076
H        4.04392112      -4.02962328       4.00446589
H        0.52956515      -1.56979621       3.52475120
H        2.67614591      -5.10988715       5.80437322
H        3.30738482      -5.91813922       8.10215542
H        3.04259128      -7.64221092       9.83192040
H        0.96987190      -7.75434663      11.17998033
H       -0.66466271      -4.45438113       8.96207418
H       -0.99950531      -1.09576430       6.82681085
H       -2.19116012       0.30736750       8.45342570
H       -1.49373670       0.32494274      10.83598538
H        0.46288066      -0.99400019      11.55829680
C       -0.00445707       0.01189536      -1.78238275
H       -0.66409135       0.67374010      -2.43557963
H        0.65740317      -0.63156657      -2.45157240
C       -0.90989263      -0.90692880      -0.91072765
C        0.90977584       0.90977584      -0.90977584
C       -0.00465871       1.77757030       0.00794375
H       -0.66225468       2.44313916      -0.64384735
H        0.64322798       2.43503045       0.67728295
C       -1.78241447       0.00034974      -0.00472694
H       -2.45427497      -0.65498947       0.64260836
H       -2.43311707       0.67328779      -0.65473579
C       -0.91132561       0.90220522       0.91563759
C       -0.01476271      -0.02253852       1.78660255
H       -0.67934791      -0.69751639       2.42135241
H        0.63392994       0.61504881       2.47327442
C        0.01484550      -1.77751727      -0.01636693
H        0.67870853      -2.42144646      -0.68295456
H       -0.62264859      -2.45592969       0.64226336
C        1.78714474       0.01002794       0.00389507
H        2.44202412       0.67113390       0.66197326
H        2.45385902      -0.65136977      -0.64189061
C        0.91606151      -0.90478549       0.90901405
