149
Properties=species:S:1:pos:R:3 pbc="F F F"
C        0.00000000       0.00000000       0.00000000
C        0.86723492       0.86723492      -0.86723492
C        0.59822421       2.17145759      -1.21158715
C        1.66971251       2.59127020      -2.03713349
C        2.53430509       1.51809257      -2.14436993
O        2.04026268       0.46052523      -1.42302070
C        3.79318443       1.37157310      -2.85541028
O        4.25246153       2.27200727      -3.54935159
N        4.38053468       0.13673326      -2.64324469
C        5.59792805      -0.35172133      -3.15029828
C        6.42870273       0.35893107      -4.01676790
C        7.62789949      -0.20534884      -4.47546298
C        8.01877791      -1.48953596      -4.07587461
C        7.18211804      -2.19877131      -3.20463565
C        5.98456077      -1.63528350      -2.74856934
C        9.26653709      -2.06916365      -4.56242614
N        9.68922175      -3.30545032      -4.25127328
O       10.89451516      -3.42442836      -4.93634807
C       11.09348403      -2.24452270      -5.59954310
N       10.12429950      -1.38239983      -5.39326033
C       12.32063139      -2.14667137      -6.38515415
C       13.45357741      -2.88159039      -5.97652673
C       14.65812039      -2.81887982      -6.68203246
C       14.75691191      -2.01867569      -7.81356278
C       13.65179425      -1.28412862      -8.23921459
C       12.44007718      -1.34411688      -7.53347820
Br      11.00284397      -0.32678565      -8.25746373
H       -0.26251628       2.75138084      -0.90846237
H        1.81093995       3.55818125      -2.50229988
H        3.85797959      -0.47914980      -2.02993099
H        6.17709792       1.35679044      -4.36302977
H        8.25332363       0.37383750      -5.15378737
H        7.45222609      -3.19899774      -2.87066435
H        5.36327993      -2.21838904      -2.07316269
H       13.41240626      -3.51060928      -5.08764820
H       15.51717735      -3.39398922      -6.34380445
H       15.69180876      -1.96677108      -8.36642310
H       13.74170593      -0.66654459      -9.13062082
C       -0.86723492      -0.86723492      -0.86723492
C       -0.69675425      -2.21739160      -1.06712309
C       -1.72670971      -2.61896659      -1.95243990
C       -2.47010704      -1.48902992      -2.23763063
O       -1.94144410      -0.41427087      -1.56809364
C       -3.64095972      -1.30148543      -3.07772266
O       -4.12232314      -2.22088606      -3.73061119
N       -4.12206795      -0.00479087      -3.03365380
C       -5.23663014       0.53786637      -3.69774121
C       -6.05258228      -0.17729327      -4.57452615
C       -7.14601915       0.44361906      -5.19561354
C       -7.44414284       1.79005689      -4.95103061
C       -6.62291595       2.50375437      -4.06882080
C       -5.53079494       1.88351701      -3.45056868
C       -8.58176704       2.42777406      -5.60580661
N       -8.90825117       3.72095147      -5.44774502
O      -10.03095344       3.87897516      -6.25445660
C      -10.28412373       2.66248660      -6.82686730
N       -9.42530507       1.74214370      -6.45199862
C      -11.44065523       2.59772924      -7.71618818
C      -12.52855723       3.46617041      -7.48612692
C      -13.66635277       3.44202926      -8.29694952
C      -13.74191650       2.54761052      -9.35749303
C      -12.68005983       1.68034616      -9.60716655
C      -11.53543714       1.70117646      -8.79517781
Br     -10.14541741       0.49523114      -9.28333578
H        0.07339963      -2.83898375      -0.63174282
H       -1.91946968      -3.61018205      -2.34176934
H       -3.59847697       0.61909736      -2.42938116
H       -5.86943605      -1.22238707      -4.80509501
H       -7.76227409      -0.14110518      -5.87756923
H       -6.82308815       3.55163774      -3.85244228
H       -4.91800873       2.47220962      -2.77225447
H      -12.50527678       4.17241899      -6.65658740
H      -14.49203166       4.12098383      -8.09594474
H      -14.62485405       2.52515579      -9.99176252
H      -12.75032447       0.98949889     -10.44495658
C       -0.86723492       0.86723492       0.86723492
C       -2.20572257       0.66467101       1.11087537
C       -2.61490817       1.71555135       1.96765668
C       -1.49870569       2.49670996       2.20135194
O       -0.42552929       1.97239840       1.52588091
C       -1.32161598       3.69630737       3.00224447
O       -2.25915156       4.22753168       3.58713714
N       -0.00800411       4.13090253       3.02160598
C        0.53746570       5.23773174       3.69623895
C       -0.20677573       6.13364241       4.46398356
C        0.41914993       7.21329545       5.10386811
C        1.80009903       7.41653262       4.98868297
C        2.54352380       6.51357246       4.21793372
C        1.91759330       5.43710434       3.57833557
C        2.44091706       8.54563123       5.65508542
N        3.75152434       8.82419302       5.56237604
O        3.90106448       9.97022028       6.33727907
C        2.66391480      10.28019701       6.83222222
N        1.74044355       9.42997952       6.44562403
C        2.59120922      11.45858161       7.69174178
C        3.72362771      11.82069488       8.45144657
C        3.70941770      12.93118537       9.29950536
C        2.56083805      13.70554825       9.40708881
C        1.42932210      13.37023441       8.66596790
C        1.43924081      12.25561243       7.81306688
Br      -0.15986104      11.94655140       6.82710961
H       -2.81524152      -0.13867737       0.72076279
H       -3.60069152       1.89337607       2.37735348
H        0.63376514       3.55814884       2.48437707
H       -1.28042757       6.02901470       4.58747586
H       -0.19014550       7.89710728       5.69369572
H        3.61915314       6.63745886       4.10558698
H        2.53014219       4.75872684       2.98946893
H        4.63679847      11.22849514       8.39774851
H        4.59571913      13.18677735       9.87593435
H        2.54473960      14.57100961      10.06519077
H        0.53887824      13.98927709       8.75538331
C        0.86723492      -0.86723492       0.86723492
C        2.24017527      -0.81157711       0.92951656
C        2.63395105      -1.80222692       1.86193823
C        1.47557464      -2.40229650       2.31889645
O        0.39112229      -1.82478219       1.70790413
C        1.26769514      -3.47066678       3.28180589
O        2.20611472      -4.04788000       3.81982567
N       -0.07334375      -3.72829290       3.50556347
C       -0.64982960      -4.67236907       4.37396552
C        0.08022285      -5.56337651       5.16080233
C       -0.57690329      -6.47430662       6.00061030
C       -1.97529129      -6.51061706       6.06979078
C       -2.70412472      -5.61310956       5.27899753
C       -2.04731831      -4.70528553       4.43987939
C       -2.64929916      -7.46534705       6.94375170
N       -3.98404530      -7.58233725       7.03675276
O       -4.16203710      -8.60440623       7.96406574
C       -2.91485990      -9.01223808       8.35112625
N       -1.95813615      -8.33676797       7.75652817
C       -2.86670961     -10.08507489       9.34074889
C       -3.92612053     -10.21054668      10.26408759
C       -3.92937159     -11.21029368      11.24035095
C       -2.87177191     -12.10824037      11.31533055
C       -1.81390779     -12.00694930      10.41383871
C       -1.80658079     -11.00423094       9.43178835
Br      -0.32238660     -11.01650203       8.23940662
H        2.88181260      -0.14244496       0.37306937
H        3.63753250      -2.05730772       2.17658086
H       -0.70954168      -3.14266472       2.97563773
H        1.16572838      -5.58389326       5.14729650
H        0.02144586      -7.15922698       6.60027565
H       -3.79233427      -5.61004988       5.30617708
H       -2.64936608      -4.02519334       3.84222631
H       -4.76553783      -9.51613587      10.23884714
H       -4.75770547     -11.28314567      11.94155237
H       -2.86971899     -12.88835893      12.07282084
H       -0.99534867     -12.72084336      10.48028746
