178
Properties=species:S:1:pos:R:3 pbc="F F F"
C        1.77713894       1.77713894      -1.77713894
C        1.50812823       3.08136162      -2.12149117
C        2.57961653       3.50117423      -2.94703751
C        3.44420911       2.42799660      -3.05427395
O        2.95016670       1.37042925      -2.33292473
C        4.70308846       2.28147712      -3.76531431
O        5.16236556       3.18191129      -4.45925561
N        5.29043870       1.04663728      -3.55314871
C        6.50783207       0.55818269      -4.06020230
C        7.33860675       1.26883509      -4.92667193
C        8.53780352       0.70455519      -5.38536700
C        8.92868193      -0.57963193      -4.98577863
C        8.09202206      -1.28886728      -4.11453967
C        6.89446480      -0.72537948      -3.65847336
C       10.17644112      -1.15925962      -5.47233017
N       10.59912578      -2.39554630      -5.16117730
O       11.80441918      -2.51452434      -5.84625210
C       12.00338805      -1.33461868      -6.50944713
N       11.03420352      -0.47249581      -6.30316435
C       13.23053541      -1.23676735      -7.29505817
C       14.36348143      -1.97168637      -6.88643075
C       15.56802442      -1.90897580      -7.59193649
C       15.66681594      -1.10877167      -8.72346681
C       14.56169827      -0.37422460      -9.14911862
C       13.34998120      -0.43421286      -8.44338222
H        0.64738775       3.66128486      -1.81836639
H        2.72084398       4.46808527      -3.41220390
H        4.76788361       0.43075422      -2.93983501
H        7.08700195       2.26669447      -5.27293379
H        9.16322766       1.28374152      -6.06369139
H        8.36213011      -2.28909372      -3.78056837
H        6.27318395      -1.30848502      -2.98306672
H       14.32231028      -2.60070525      -5.99755222
H       16.42708137      -2.48408520      -7.25370847
H       16.60171278      -1.05686705      -9.27632712
H       14.65160995       0.24335943     -10.04052485
C       12.26292931       0.33524601      -8.99096896
C       11.35252335       0.97966782      -9.44957285
Br       9.88047392       2.02164338     -10.19109655
C       -1.77713894      -1.77713894      -1.77713894
C       -2.42445335      -1.36710947      -2.91941819
C       -3.12420744      -2.49869292      -3.40492792
C       -2.85835011      -3.53659327      -2.53153628
O       -2.02875914      -3.09149064      -1.53327090
C       -3.29874541      -4.92146585      -2.52966863
O       -4.07535095      -5.35416060      -3.37402091
N       -2.73893179      -5.65372424      -1.49756867
C       -2.91914008      -7.01465974      -1.19241725
C       -3.75946084      -7.87327037      -1.90138256
C       -3.88049411      -9.21958359      -1.52764800
C       -3.16335580      -9.73219061      -0.43928222
C       -2.31973520      -8.86668220       0.26872295
C       -2.20079162      -7.52262712      -0.10413995
C       -3.29978425     -11.13366585      -0.05606157
N       -2.67234018     -11.68705099       0.99463438
O       -3.10253939     -13.01023650       0.97662895
C       -3.95164690     -13.13819280      -0.08837680
N       -4.09623615     -12.01497504      -0.75366088
C       -4.51983189     -14.46630687      -0.30268748
C       -3.78123365     -15.59846307       0.10147091
C       -4.26882230     -16.89421480      -0.08794800
C       -5.50767246     -17.08717064      -0.68666798
C       -6.25785750     -15.98540999      -1.09332480
C       -5.77183121     -14.68223516      -0.90508419
H       -2.39890989      -0.37639321      -3.35173590
H       -3.74830408      -2.56632826      -4.28650081
H       -2.10963308      -5.12828921      -0.90055056
H       -4.34228816      -7.53257047      -2.75177158
H       -4.54732181      -9.86382174      -2.09951702
H       -1.74510906      -9.22815404       1.11965833
H       -1.53525895      -6.88365160       0.47114490
H       -2.80175988     -15.48205963       0.56466226
H       -3.67773812     -17.74984245       0.23087593
H       -5.89187333     -18.09340166      -0.83589786
H       -7.22910246     -16.15124220      -1.55514957
C       -6.64363869     -13.61715449      -1.32835111
C       -7.37377745     -12.72514942      -1.68283715
Br      -8.55435007     -11.28285268      -2.25601110
C       -1.77713894       1.77713894       1.77713894
C       -2.74099126       1.32298184       2.64700792
C       -3.30861656       2.47487369       3.24433803
C       -2.65310809       3.56665979       2.70671179
O       -1.71107953       3.13546536       1.80697580
C       -2.81072301       4.99097477       2.94818210
O       -3.66830248       5.42694081       3.70828917
N       -1.89535222       5.75210202       2.24277045
C       -1.73796645       7.14958216       2.23866844
C       -2.54386266       8.03216525       2.95808586
C       -2.31666299       9.41471873       2.89634399
C       -1.27957289       9.94000698       2.11524877
C       -0.47206119       9.04988912       1.39574414
C       -0.70062057       7.67014564       1.45679248
C       -1.05438622      11.38056637       2.05455908
N       -0.10397099      11.95875243       1.30203337
O       -0.26821104      13.31810393       1.54983198
C       -1.30452178      13.43896352       2.43473120
N       -1.81149439      12.27659298       2.77678469
C       -1.64564572      14.79844041       2.84474011
C       -0.63230299      15.77993626       2.86598656
C       -0.89684650      17.09426742       3.25987118
C       -2.18246710      17.45710400       3.64193998
C       -3.20169899      16.50684226       3.62805104
C       -2.94032563      15.18558062       3.23324432
H       -3.00581717       0.29084236       2.83037948
H       -4.09859069       2.51985530       3.98268717
H       -1.25403260       5.21571057       1.66872968
H       -3.36432405       7.68406380       3.57824236
H       -2.96537341      10.07796089       3.46732626
H        0.34463728       9.41982826       0.77841378
H       -0.05134464       7.01287103       0.88354997
H        0.38858341      15.52560655       2.58213412
H       -0.09650675      17.83080905       3.26938884
H       -2.39370307      18.47867004       3.94879974
H       -4.20507655      16.80660853       3.92380915
C       -4.07247777      14.29581779       3.22084872
C       -5.02065519      13.55064143       3.21046741
Br      -6.55377787      12.34575427       3.19368170
C        1.77713894      -1.77713894       1.77713894
C        1.66641557      -3.14244554       1.90211991
C        2.67126803      -3.53819024       2.81837001
C        3.34114206      -2.38949084       3.19584675
O        2.79140160      -1.30888878       2.55323030
C        4.45860858      -2.18841757       4.10285374
O        4.95403133      -3.11549850       4.73400263
N        4.87433801      -0.86929659       4.14659010
C        5.92605445      -0.30773295       4.89242966
C        6.73389161      -1.02625547       5.77396668
C        7.76262496      -0.38546043       6.47964031
C        8.00303766       0.98463280       6.31642377
C        7.19027762       1.70171766       5.42913449
C        6.16268439       1.06151490       4.72638919
C        9.07334954       1.64261752       7.05877964
N        9.34056655       2.95653767       6.98072789
O       10.41313674       3.12752847       7.85053867
C       10.70004641       1.89711475       8.37528484
N        9.90868186       0.95645748       7.91264768
C       11.81373695       1.84330090       9.31839018
C       12.86569952       2.77427209       9.18679839
C       13.96244258       2.76407656      10.05261909
C       14.03196666       1.82132138      11.07086579
C       13.00497008       0.89178811      11.22341033
C       11.90164297       0.89840854      10.35591613
H        0.95115832      -3.77768853       1.39819215
H        2.89530333      -4.53746784       3.16836198
H        4.34954246      -0.24153191       3.54739848
H        6.59343838      -2.08944568       5.94374614
H        8.37407066      -0.97362376       7.16296615
H        7.34688128       2.76779303       5.27451652
H        5.55431862       1.65361921       4.04706624
H       12.84671371       3.52005501       8.39249855
H       14.76111428       3.49178982       9.92738018
H       14.88299108       1.80943876      11.74762053
H       13.06963370       0.16323202      12.02909255
C       10.88161277      -0.08146854      10.62606297
C       10.02733748      -0.90211558      10.85231095
Br       8.64604659      -2.22903246      11.21813480
C       -0.00445707       0.01189536      -1.78238275
H       -0.66409135       0.67374010      -2.43557963
H        0.65740317      -0.63156657      -2.45157240
C       -0.90989263      -0.90692880      -0.91072765
C        0.90977584       0.90977584      -0.90977584
C       -0.00465871       1.77757030       0.00794375
H       -0.66225468       2.44313916      -0.64384735
H        0.64322798       2.43503045       0.67728295
C       -1.78241447       0.00034974      -0.00472694
H       -2.45427497      -0.65498947       0.64260836
H       -2.43311707       0.67328779      -0.65473579
C       -0.91132561       0.90220522       0.91563759
C       -0.01476271      -0.02253852       1.78660255
H       -0.67934791      -0.69751639       2.42135241
H        0.63392994       0.61504881       2.47327442
C        0.01484550      -1.77751727      -0.01636693
H        0.67870853      -2.42144646      -0.68295456
H       -0.62264859      -2.45592969       0.64226336
C        1.78714474       0.01002794       0.00389507
H        2.44202412       0.67113390       0.66197326
H        2.45385902      -0.65136977      -0.64189061
C        0.91606151      -0.90478549       0.90901405
