157
Properties=species:S:1:pos:R:3 pbc="F F F"
C        0.00000000       0.00000000       0.00000000
C        0.86712437       0.86712437      -0.86712437
C        0.71625233       2.22350152      -1.04006871
C        1.74061033       2.62391089      -1.93200166
C        2.45798690       1.48644310      -2.25198557
O        1.92017673       0.40809656      -1.59609416
C        3.60678020       1.29662010      -3.11955555
O        4.11566013       2.23331660      -3.72785819
N        4.03079658      -0.01976654      -3.16711153
C        5.09249027      -0.56781195      -3.91075992
C        5.91447784       0.17391135      -4.75883420
C        6.94110244      -0.44945848      -5.48084408
C        7.16890190      -1.82700068      -5.36699429
C        6.34949600      -2.56741290      -4.50652171
C        5.32040371      -1.94381940      -3.78835270
C        8.21964373      -2.48098393      -6.14034667
N        8.92177612      -1.86877470      -7.10864031
O        9.75591112      -2.86918914      -7.59626423
C        9.48679023      -3.99345318      -6.87094036
N        8.56237170      -3.80528196      -5.95528643
C       10.25127612      -5.18822591      -7.20342677
C       10.90924309      -5.32067601      -8.43762308
C       11.63053296      -6.47784466      -8.74331866
C       11.70850946      -7.51495353      -7.81610261
C       11.05946663      -7.39205202      -6.58934040
C       10.32990259      -6.24266739      -6.28190595
H       -0.03735823       2.84995560      -0.58287425
H        1.94385645       3.61872460      -2.30711724
H        3.49201822      -0.65963562      -2.59244779
H        5.78601019       1.24356957      -4.89268966
H        7.55796828       0.16188235      -6.13774909
H        6.49740173      -3.64014858      -4.39534738
H        4.70002125      -2.55476711      -3.13706888
H       10.85873147      -4.52678053      -9.18144362
H       12.12975019      -6.56884444      -9.70531379
H       12.27430091      -8.41095967      -8.05870621
H        9.82600567      -6.15956047      -5.32052709
C       11.14547665      -8.46130125      -5.62865921
C       11.21751004      -9.35679749      -4.82408872
Br      11.33398193     -10.80473916      -3.52316627
C       -0.86712437      -0.86712437      -0.86712437
C       -1.60064468      -1.94669271      -0.43248517
C       -2.25835397      -2.46276022      -1.57540869
C       -1.88701665      -1.66666240      -2.64273651
O       -1.03269258      -0.68630064      -2.20537424
C       -2.24824358      -1.72686835      -4.04784393
O       -3.00564570      -2.58994048      -4.48124874
N       -1.65191340      -0.72842855      -4.79779962
C       -1.75981643      -0.49431011      -6.18131171
C       -2.52026762      -1.27930112      -7.04765465
C       -2.56212322      -0.99178710      -8.41857771
C       -1.84689347       0.08879755      -8.95079958
C       -1.09317974       0.88192659      -8.07735167
C       -1.04852591       0.59091056      -6.70732165
C       -1.86776073       0.37120848     -10.38245421
N       -2.42198933      -0.44546340     -11.29418900
O       -2.16381471       0.18668052     -12.50585202
C       -1.48374025       1.33328842     -12.21382559
N       -1.28888271       1.50104183     -10.92453528
C       -1.10230356       2.17553052     -13.33970394
C       -1.04785645       1.67165679     -14.64999050
C       -0.67095183       2.49176186     -15.71681698
C       -0.34979874       3.82814072     -15.48800051
C       -0.40150492       4.33653866     -14.19178877
C       -0.76828007       3.52007440     -13.12093548
H       -1.65682511      -2.31964557       0.58099907
H       -2.92545659      -3.31339261      -1.63084909
H       -1.05854053      -0.09779792      -4.26849194
H       -3.09317219      -2.13215972      -6.69693751
H       -3.16200798      -1.63128417      -9.06430758
H       -0.52380920       1.72840793      -8.45719927
H       -0.44465323       1.22526958      -6.06293937
H       -1.28854367       0.62931732     -14.85416821
H       -0.62736759       2.08621301     -16.72506496
H       -0.06091178       4.46170024     -16.32283590
H       -0.80330425       3.92898489     -12.11265293
C       -0.07576661       5.71931861     -13.95638661
C        0.19703923       6.87739682     -13.75923731
Br       0.63814319       8.74991133     -13.44046355
C       -0.86712437       0.86712437       0.86712437
C       -0.55012010       2.13595557       1.29374689
C       -1.64353352       2.57236626       2.08062309
C       -2.56554651       1.54247140       2.08839764
O       -2.08697569       0.49580921       1.34158255
C       -3.86299213       1.42946029       2.73050344
O       -4.32602389       2.34019921       3.41061183
N       -4.47839523       0.21453880       2.48520753
C       -5.72235247      -0.24410945       2.95719523
C       -6.56072523       0.49588035       3.79061782
C       -7.77789151      -0.03901298       4.23360951
C       -8.18319904      -1.32379010       3.84948656
C       -7.34498940      -2.06022429       3.00383970
C       -6.12605569      -1.52610941       2.56499072
C       -9.43729711      -1.89187181       4.33358117
N      -10.19900645      -1.31657589       5.27921117
O      -11.24363432      -2.21746266       5.45681455
C      -11.02136460      -3.25183900       4.59475182
N       -9.93425478      -3.09430419       3.87242558
C      -11.99987764      -4.33117714       4.59777648
C      -12.87475607      -4.52783158       5.67926566
C      -13.80100121      -5.57411798       5.66912373
C      -13.86868733      -6.43345381       4.57442502
C      -13.00520035      -6.24564084       3.49719551
C      -12.07174566      -5.20811598       3.50551147
H        0.35561736       2.68226222       1.06882676
H       -1.75984619       3.52093605       2.58891605
H       -3.94829463      -0.41736755       1.89390332
H       -6.30105327       1.49522154       4.12599461
H       -8.40253850       0.56656386       4.88849736
H       -7.62798688      -3.06252779       2.68714144
H       -5.49890473      -2.13274496       1.91616325
H      -12.83780274      -3.87344786       6.54903968
H      -14.46784346      -5.71785685       6.51623293
H      -14.59401178      -7.24320548       4.57124114
H      -11.40161932      -5.07296691       2.65831987
C      -13.07962999      -7.12993239       2.36313701
C      -13.14196482      -7.87052656       1.41336301
Br     -13.24275495      -9.06800470      -0.12234121
C        0.86712437      -0.86712437       0.86712437
C        1.33266400      -2.11699020       0.53016836
C        2.10135992      -2.56226064       1.63290231
C        2.05983905      -1.55638879       2.58018773
O        1.30155689      -0.51531481       2.10749576
C        2.65926837      -1.46417508       3.89951241
O        3.34084748      -2.37419728       4.36179016
N        2.37229062      -0.26956629       4.53628466
C        2.76728607       0.15156154       5.81971371
C        3.54339489      -0.61635882       6.68746968
C        3.88020687      -0.13320977       7.95907140
C        3.45050186       1.12935398       8.38774762
C        2.68088562       1.90283996       7.51055915
C        2.34098033       1.41694304       6.24089971
C        3.77730423       1.62078289       9.72248512
N        4.35665933       0.86699121      10.67197362
O        4.42618204       1.71520733      11.77201150
C        3.88942473       2.90811388      11.38296656
N        3.48938374       2.90763746      10.13062988
C        3.85597905       3.96967902      12.38017695
C        3.96594568       3.69288403      13.75312850
C        3.92263572       4.72300675      14.69637799
C        3.77522983       6.04398420      14.27841291
C        3.66588596       6.32784830      12.91871736
C        3.69918515       5.30249845      11.97245445
H        1.14347404      -2.64588456      -0.39388698
H        2.62778407      -3.50199460       1.73991961
H        1.79643762       0.36986986       3.99826264
H        3.90343666      -1.60368010       6.41515266
H        4.48239365      -0.76446927       8.61073680
H        2.32863966       2.88782010       7.81178097
H        1.73437612       2.04415513       5.59210203
H        4.07612241       2.66832783      14.10559999
H        4.00286215       4.49302272      15.75638011
H        3.74595004       6.84101862      15.01711603
H        3.61116156       5.53731265      10.91312337
C        3.51998541       7.69369617      12.48654537
C        3.39779370       8.83759376      12.12460132
Br       3.20022004      10.68717941      11.53936841
