161
Properties=species:S:1:pos:R:3 pbc="F F F"
C        0.00000000       0.00000000       0.00000000
C        0.88154163       0.88154163      -0.88154163
C        2.26624462       0.84886682      -0.72751533
C        3.07827299       1.65216611      -1.53534551
C        2.50196946       2.48811074      -2.49397423
C        1.11333924       2.50171999      -2.65073389
C        0.29963023       1.70605401      -1.84060597
O        3.19574008       3.28378426      -3.36341713
C        4.43908747       3.78582972      -2.87262297
N        5.00845473       4.66403983      -3.89075547
N        5.17788327       5.98012606      -3.64411533
C        5.73724031       6.44025561      -4.76911509
C        5.96570768       5.41746525      -5.71507862
C        5.49594748       4.27652991      -5.11177328
N        6.52032289       5.44793271      -6.97622411
C        6.86708427       6.59829113      -7.65462171
O        6.73732080       7.74514739      -7.23872885
C        7.39191295       6.31735045      -9.00184546
C        7.55325570       7.25085658     -10.05160294
C        8.04622912       6.53551518     -11.11413539
N        8.36813826       6.90702848     -12.39010476
C        8.87613703       5.97123848     -13.13814173
C        9.13752537       4.55821896     -12.72454694
C        8.77109660       4.25445279     -11.47291013
N        8.20988631       5.22690664     -10.65428745
N        7.76214145       5.07723399      -9.38111926
H        2.72443366       0.19571383       0.01105958
H        4.15255545       1.57919849      -1.40483337
H        0.65971080       3.14269514      -3.40362826
H       -0.77901672       1.73558528      -1.96913621
H        5.17324014       2.98696252      -2.72452314
H        4.29719477       4.37092650      -1.95661587
H        5.96803606       7.49591090      -4.84250477
H        5.43712512       3.24847046      -5.43700157
H        6.64742044       4.57682882      -7.48022425
H        7.31824275       8.30604240     -10.03648220
H        9.14358399       6.22374434     -14.17840535
H        8.89072768       3.27441710     -11.03172398
C        9.73745647       3.64161531     -13.65917008
C       10.23989877       2.87395976     -14.44191697
Br      11.05230548       1.63272565     -15.70755247
C       -0.88154163      -0.88154163      -0.88154163
C       -2.00678911      -1.49816258      -0.33767508
C       -2.81950760      -2.30394294      -1.14233408
C       -2.50248861      -2.49243221      -2.48913360
C       -1.38055398      -1.85703982      -3.02819932
C       -0.56320922      -1.05771094      -2.22537005
O       -3.24310838      -3.22272152      -3.37711157
C       -3.94789562      -4.33158465      -2.81805988
N       -4.62298876      -5.03568504      -3.90457623
N       -4.28235263      -6.30406357      -4.21570845
C       -5.11543523      -6.61603049      -5.21514529
C       -6.01470607      -5.56954125      -5.51400424
C       -5.68004546      -4.56495661      -4.63924861
N       -7.02629937      -5.47334843      -6.44483192
C       -7.28575300      -6.41107171      -7.42317241
O       -6.66488166      -7.45389108      -7.60242430
C       -8.39876161      -6.01125508      -8.30109218
C       -8.72318641      -6.57661840      -9.55591040
C       -9.81048803      -5.87384860     -10.01154306
N      -10.53169852      -5.96379388     -11.16977910
C      -11.55889311      -5.16969041     -11.25693372
C      -12.00914716      -4.19511760     -10.21602650
C      -11.24098199      -4.13673760      -9.12073993
N      -10.12720194      -4.95938424      -9.00449423
N       -9.23594679      -5.00355166      -7.98099625
H       -2.26576023      -1.35131436       0.70798666
H       -3.70141595      -2.74482962      -0.69034173
H       -1.13518666      -1.99134698      -4.07950057
H        0.31079616      -0.57840497      -2.65809596
H       -4.74041276      -4.01012785      -2.13418518
H       -3.26140384      -5.03317199      -2.33016132
H       -5.04082021      -7.59656596      -5.66906557
H       -6.06639345      -3.56791848      -4.48828523
H       -7.60379709      -4.63954825      -6.46112817
H       -8.21251050      -7.38028506     -10.06797180
H      -12.16563550      -5.20216244     -12.17793575
H      -11.43370719      -3.47844379      -8.28471779
C      -13.19022173      -3.40360044     -10.44441970
C      -14.17937168      -2.74070482     -10.63569899
Br     -15.77874349      -1.66885867     -10.94498144
C       -0.88154163       0.88154163       0.88154163
C       -0.40846468       1.31574572       2.11841637
C       -1.21118443       2.12652329       2.92807689
C       -2.48665324       2.49882382       2.49857737
C       -2.94529266       2.07068097       1.24981948
C       -2.14876528       1.25511282       0.44241211
O       -3.34027160       3.31765400       3.18501588
C       -3.23646115       3.25341153       4.60766748
N       -4.25648649       4.12885179       5.17791175
N       -5.25775547       3.61882533       5.92554386
C       -5.95913328       4.69885694       6.28862080
C       -5.38633707       5.89852521       5.81338927
C       -4.27731014       5.49763142       5.10930911
N       -5.76934305       7.21400747       5.96112920
C       -6.95089188       7.62808564       6.54101959
O       -7.81880707       6.89629697       7.00609300
C       -7.10533601       9.09258456       6.51318830
C       -8.29902574       9.81546916       6.74122031
C       -7.96840908      11.13877561       6.58869500
N       -8.71907323      12.27898793       6.66721034
C       -8.06498794      13.39497653       6.52555277
C       -6.59345495      13.53007804       6.29675828
C       -5.92399516      12.37439019       6.20007417
N       -6.59622565      11.16522215       6.32963261
N       -6.07489819       9.91535247       6.23024403
H        0.58606961       1.03714779       2.45800974
H       -0.79818464       2.46693054       3.87147212
H       -3.93373376       2.36697169       0.90532876
H       -2.52429019       0.92320744      -0.52179286
H       -2.27724247       3.64148525       4.96599807
H       -3.41576031       2.23570519       4.97327165
H       -6.84565653       4.56462308       6.89617212
H       -3.52843196       6.04135265       4.55281254
H       -5.17823781       7.94541275       5.58082295
H       -9.27799605       9.41596391       6.96680739
H       -8.63166924      14.34049334       6.57357111
H       -4.85804477      12.30859567       6.03022832
C       -6.00610875      14.84062977       6.19150335
C       -5.51420630      15.93821684       6.10335235
Br      -4.71884166      17.71292231       5.96081963
C        0.88154163      -0.88154163       0.88154163
C        0.46897454      -1.19947803       2.17417419
C        1.27165314      -2.00976346       2.98436801
C        2.48669218      -2.49798604       2.49937620
C        2.88365741      -2.18584875       1.19628696
C        2.08761465      -1.37108168       0.38759388
O        3.33086075      -3.32793448       3.18414624
C        3.33155872      -3.16345976       4.60252168
N        4.32950246      -4.06904818       5.16469939
N        5.41203077      -3.58262825       5.80746564
C        6.06485398      -4.68308382       6.19867321
C        5.38272999      -5.86816843       5.84735313
C        4.25570211      -5.43746143       5.19108714
N        5.68811128      -7.19476268       6.06160575
C        6.87774828      -7.65182134       6.59042749
O        7.82224865      -6.95382705       6.94512133
C        6.93353796      -9.12221463       6.65535627
C        8.09033197      -9.91056683       6.85481640
C        7.66380716     -11.21455931       6.81751323
N        8.34177874     -12.39702676       6.92646599
C        7.60763058     -13.47125123       6.90663543
C        6.11798819     -13.51747669       6.78482638
C        5.52058532     -12.32649363       6.65138056
N        6.27805323     -11.16158637       6.65144080
N        5.83408156      -9.88742734       6.49898581
H       -0.47887763      -0.83012922       2.55783633
H        0.90444187      -2.25778723       3.97435820
H        3.82394128      -2.57270208       0.80939085
H        2.41550685      -1.13025507      -0.62005715
H        2.37647778      -3.45895228       5.04929574
H        3.60238543      -2.13907264       4.88327907
H        6.99870744      -4.57185071       6.73589358
H        3.43560079      -5.96260140       4.72439497
H        5.02511466      -7.90624137       5.77311748
H        9.10679223      -9.56680953       6.98716560
H        8.11309055     -14.44901269       6.98363045
H        4.45195515     -12.19734461       6.54756901
C        5.44007258     -14.78766209       6.81050720
C        4.87231826     -15.85144235       6.83201488
Br       3.95430755     -17.57148507       6.86679098
