170
Properties=species:S:1:pos:R:3 pbc="F F F"
C        1.79390714       1.79390714      -1.79390714
C        1.50032580       3.15282689      -1.91427174
C        2.30393697       3.95805381      -2.71812776
C        3.38838736       3.39505790      -3.38799879
O        4.14893099       4.23140618      -4.16584182
C        3.70051983       2.02760621      -3.27811372
C        4.84308358       1.39184076      -3.96628560
H        4.99137674       0.32854394      -3.79470973
N        5.64732255       2.13927306      -4.75383736
C        6.75052052       1.33958864      -5.33774789
C        7.66166441       2.21071032      -6.24118538
N        8.76785262       1.40946009      -6.81491888
C        9.58090664       2.14616745      -7.60239396
H        9.43465126       3.20663868      -7.79110963
C       10.74068501       1.50226849      -8.25402759
C       11.57126131       2.28446464      -9.06709470
C       12.67824479       1.71486647      -9.70152315
C       12.97979047       0.36213682      -9.54022296
C       12.16443050      -0.42983070      -8.73506215
C       11.06111297       0.14044855      -8.10351201
O       10.29101158      -0.68286333      -7.32166957
C        2.88166643       1.23173486      -2.46669392
H        0.65713004       3.59069774      -1.39202171
H        2.10164293       5.01705025      -2.83136758
H        4.85040873       3.60851986      -4.53054141
H        6.36394115       0.50612913      -5.94236739
H        7.37558185       0.88993102      -4.55232425
H        8.04433182       3.04757129      -5.63876070
H        7.03859055       2.65550623      -7.03081209
H       11.34236843       3.33778312      -9.19673645
H       13.83831705      -0.08164419     -10.03150100
H       12.37275151      -1.48396806      -8.59016786
H        9.57828974      -0.05683812      -6.98520668
H        3.10480664       0.17399675      -2.36803089
C       13.52216612       2.53228791     -10.53412087
C       14.22895023       3.21687838     -11.23142146
Br      15.37176037       4.32380325     -12.35889754
C       -1.79390714      -1.79390714      -1.79390714
C       -1.48309779      -3.14671417      -1.93761247
C       -2.28668985      -3.95193734      -2.74149135
C       -3.38828863      -3.39506201      -3.38809341
O       -4.14801802      -4.23115349      -4.16700748
C       -3.71791321      -2.03384122      -3.25448533
C       -4.87889026      -1.40477869      -3.91754099
H       -5.03958272      -0.34619242      -3.72885527
N       -5.68368663      -2.15245547      -4.70429087
C       -6.80611882      -1.36040563      -5.26133260
C       -7.71771283      -2.23164295      -6.16420434
N       -8.84301229      -1.43821223      -6.71100707
C       -9.65677077      -2.17529221      -7.49740508
H       -9.49839812      -3.23084279      -7.70315866
C      -10.83455480      -1.53885245      -8.12357384
C      -11.66555909      -2.32130289      -8.93595868
C      -12.78927639      -1.75864133      -9.54671668
C      -13.10738176      -0.41270819      -9.36206030
C      -12.29183943       0.37940652      -8.55722903
C      -11.17181862      -0.18394772      -7.94930718
O      -10.40229448       0.63918952      -7.16671286
C       -2.89884398      -1.23786142      -2.44338981
H       -0.62654698      -3.57984566      -1.43345685
H       -2.07124045      -5.00627398      -2.87254633
H       -4.86323151      -3.61323639      -4.51300210
H       -6.43983441      -0.51318169      -5.85942158
H       -7.42620801      -0.93067387      -4.46095524
H       -8.08006962      -3.08218156      -5.56841264
H       -7.09973822      -2.65648340      -6.96868726
H      -11.42382795      -3.36935644      -9.08370360
H      -13.97890395       0.02568213      -9.83495204
H      -12.51279802       1.42835721      -8.39451049
H       -9.67619548       0.01868816      -6.84915098
H       -3.13532445      -0.18487462      -2.32663522
C      -13.63340758      -2.57622629     -10.37894103
C      -14.34036745      -3.26095369     -11.07592893
Br     -15.48346177      -4.36809999     -12.20289940
C       -1.79390714       1.79390714       1.79390714
C       -3.01992193       1.30289260       2.24460991
C       -3.82493421       2.10618491       3.04899942
C       -3.39343048       3.38596979       3.39204378
O       -4.22278716       4.13612726       4.18726456
C       -2.16038002       3.89775820       2.94810154
C       -1.66291111       5.24576446       3.29253438
H       -0.68838714       5.52593162       2.90031165
N       -2.41361052       6.05485679       4.07196566
C       -1.74439146       7.35186390       4.33160169
C       -2.61996038       8.26961427       5.22398546
N       -1.94317175       9.56069287       5.48836697
C       -2.68260052      10.37778961       6.26907793
H       -3.66333493      10.11308345       6.65598120
C       -2.15392713      11.70873806       6.63431590
C       -2.93715917      12.54085320       7.44480829
C       -2.47455250      13.80677488       7.81330703
C       -1.22920351      14.26783685       7.38510989
C       -0.43765322      13.45309670       6.57891203
C       -0.90115987      12.19116615       6.21274751
O       -0.08296869      11.42867167       5.41817745
C       -1.36354844       3.07747836       2.13906841
H       -3.35478373       0.30667464       1.97839112
H       -4.78226950       1.75287103       3.41492022
H       -3.70375078       4.99187632       4.29384290
H       -1.53120957       7.88672039       3.39450771
H       -0.77663528       7.20727857       4.83392328
H       -2.83821992       7.73333581       6.15910809
H       -3.58548814       8.42009886       4.71932188
H       -3.90713556      12.18815384       7.78159859
H       -0.86843162      15.24967527       7.67006697
H        0.53453406      13.78315633       6.23032904
H       -0.62299182      10.58819188       5.29547461
H       -0.40832504       3.45290639       1.78560285
C       -3.29162333      14.65017536       8.64677621
C       -3.97592015      15.35652326       9.34480665
Br      -5.08237024      16.49862809      10.47346284
C        1.79390714      -1.79390714       1.79390714
C        3.08890937      -1.37570795       2.10280712
C        3.89400393      -2.17906107       2.90705354
C        3.39390002      -3.38612988       3.39141415
O        4.22657807      -4.13951780       4.18008312
C        2.09085091      -3.82382590       3.09156295
C        1.51996969      -5.09289226       3.58834800
H        0.49638378      -5.31860844       3.29963819
N        2.26852554      -5.89932178       4.37258565
C        1.52382038      -7.10971098       4.79432570
C        2.39750335      -8.02584852       5.69020824
N        1.64615407      -9.22932694       6.11675059
C        2.38299435     -10.04264011       6.90383360
H        3.41107363      -9.83323122       7.18809473
C        1.78424809     -11.29045118       7.42228182
C        2.56596043     -12.12008422       8.23677600
C        2.03823865     -13.30871269       8.74768306
C        0.72832342     -13.69373221       8.46009462
C       -0.06265288     -12.88030481       7.65201001
C        0.46584799     -11.69553335       7.14369219
O       -0.35471190     -10.93079742       6.35373230
C        1.29482322      -3.00466769       2.28060430
H        3.47724824      -0.43594135       1.72665990
H        4.90403320      -1.88129737       3.16473019
H        3.65271967      -4.93658361       4.40016673
H        1.18964293      -7.69656510       3.92622963
H        0.61707454      -6.84360272       5.35715986
H        2.73666718      -7.43817249       6.55582415
H        3.30137012      -8.29780972       5.12572904
H        3.58600114     -11.82631078       8.46457608
H        0.31698964     -14.61552006       8.85566416
H       -1.08411427     -13.15233305       7.41073253
H        0.23740526     -10.15196621       6.11728683
H        0.28621453      -3.32359388       2.03702588
C        2.85463786     -14.15064100       9.58329604
C        3.53837220     -14.85575596      10.28312191
Br       4.64391279     -15.99586721      11.41468115
C       -0.00445707       0.01189536      -1.78238275
H       -0.66409135       0.67374010      -2.43557963
H        0.65740317      -0.63156657      -2.45157240
C       -0.90989263      -0.90692880      -0.91072765
C        0.90977584       0.90977584      -0.90977584
C       -0.00465871       1.77757030       0.00794375
H       -0.66225468       2.44313916      -0.64384735
H        0.64322798       2.43503045       0.67728295
C       -1.78241447       0.00034974      -0.00472694
H       -2.45427497      -0.65498947       0.64260836
H       -2.43311707       0.67328779      -0.65473579
C       -0.91132561       0.90220522       0.91563759
C       -0.01476271      -0.02253852       1.78660255
H       -0.67934791      -0.69751639       2.42135241
H        0.63392994       0.61504881       2.47327442
C        0.01484550      -1.77751727      -0.01636693
H        0.67870853      -2.42144646      -0.68295456
H       -0.62264859      -2.45592969       0.64226336
C        1.78714474       0.01002794       0.00389507
H        2.44202412       0.67113390       0.66197326
H        2.45385902      -0.65136977      -0.64189061
C        0.91606151      -0.90478549       0.90901405
