174
Properties=species:S:1:pos:R:3 pbc="F F F"
C        1.79256696       1.79256696      -1.79256696
C        1.91296814       3.15265738      -1.50281676
C        2.70359792       3.96448551      -2.31533742
C        3.36377001       3.41265442      -3.41426729
C        3.24020673       2.04841465      -3.70695740
C        2.45901239       1.23409563      -2.88157123
C        3.92615362       1.48272119      -4.86890347
C        5.12256909       0.69263036      -4.84696459
C        5.50124518       0.59293752      -6.12631610
N        4.75597278       1.23371284      -7.05714332
N        3.65508676       1.91943581      -6.23609620
C        2.34758930       1.45549405      -6.75151809
N        1.22536776       2.14870940      -6.10491009
N        0.19542924       1.43604713      -5.56404612
C       -0.61385146       2.38447147      -5.07999144
C       -0.16983273       3.68197779      -5.39172351
Cl      -0.94378590       5.12948255      -4.98254707
C        0.99570426       3.50351340      -6.08791115
C        6.66102428      -0.21155901      -6.56210014
C        6.94740609      -1.44497338      -5.95324510
C        8.02107136      -2.23161156      -6.37973915
C        8.82471758      -1.79582746      -7.43010081
C        8.54695312      -0.57714650      -8.04795959
Br       9.63310798       0.00591178      -9.48452961
C        7.47660965       0.21032046      -7.62237399
H        1.39102045       3.58770464      -0.65611262
H        2.80052104       5.02550322      -2.10602603
H        3.97076766       4.03971597      -4.06471345
H        2.34769381       0.18133289      -3.12460415
H        5.57858791       0.27301989      -3.97004138
H        2.20034511       0.37586752      -6.61940872
H        2.25248090       1.69345203      -7.81880594
H       -1.49641963       2.08489453      -4.53542052
H        1.70857850       4.18612997      -6.52539706
H        6.30914465      -1.80949307      -5.15189294
H        8.21597002      -3.18377723      -5.89718226
H        9.65327266      -2.41149439      -7.76459444
H        7.25615303       1.15700919      -8.10974791
C       -1.79256696      -1.79256696      -1.79256696
C       -1.76749346      -3.17783082      -1.62311800
C       -2.55836223      -3.98759963      -2.43745898
C       -3.36432264      -3.40790418      -3.41846490
C       -3.38689469      -2.01797345      -3.59071064
C       -2.60438500      -1.20773241      -2.76256183
C       -4.22555719      -1.42153245      -4.63068864
C       -5.47815844      -0.75266328      -4.43134231
C       -5.98300197      -0.57930690      -5.65818994
N       -5.27644580      -1.06435048      -6.70603266
N       -4.04806179      -1.71133159      -6.05122541
C       -2.83985953      -1.08345572      -6.63128619
N       -1.60612441      -1.72082934      -6.15203350
N       -0.59499111      -0.96343969      -5.63709169
C        0.33501644      -1.86944939      -5.31617849
C       -0.02300560      -3.17135836      -5.70950461
Cl       0.90789045      -4.56924231      -5.50689187
C       -1.26003843      -3.04433383      -6.28275657
C       -7.24368530       0.14673336      -5.91461347
C       -7.57653126       1.29058243      -5.16972899
C       -8.74939163       2.00623362      -5.42604093
C       -9.60799777       1.58868741      -6.43968057
C       -9.28581701       0.45941373      -7.19136293
Br     -10.44836274      -0.09758207      -8.57760456
C       -8.11626552      -0.25729455      -6.93574403
H       -1.13247728      -3.63301174      -0.86934869
H       -2.54335250      -5.06709740      -2.32160039
H       -3.97369056      -4.03105877      -4.07044775
H       -2.60758712      -0.13215934      -2.91388440
H       -5.88386483      -0.45504388      -3.48274047
H       -2.77435685      -0.01016416      -6.41110034
H       -2.82571127      -1.21855817      -7.72046942
H        1.23591889      -1.53598172      -4.82383258
H       -1.94954137      -3.75091977      -6.71964439
H       -6.89930567       1.64329643      -4.39553528
H       -8.97919147       2.89064696      -4.84083054
H      -10.51435040       2.14996476      -6.64198707
H       -7.86204329      -1.13344997      -7.52741686
C       -1.79256696       1.79256696       1.79256696
C       -2.77509078       1.20339830       2.58995321
C       -3.59344384       2.00629055       3.38368644
C       -3.42770837       3.39206125       3.37092209
C       -2.44392967       3.98350744       2.56814168
C       -1.61493037       3.17472411       1.78502477
C       -2.28723980       5.43810445       2.55243403
C       -1.25982449       6.18851042       3.21382912
C       -1.63924853       7.46760216       3.11364811
N       -2.81658420       7.73070032       2.49954442
N       -3.34931473       6.34229199       2.11901206
C       -3.57248804       6.32610612       0.65600728
N       -4.19613874       5.07315008       0.20969844
N       -3.65363664       4.36299759      -0.82111175
C       -4.47396070       3.31297501      -0.93632425
C       -5.57893093       3.39515611      -0.07021848
Cl      -6.84376300       2.27790184       0.04657888
C       -5.39931117       4.55852179       0.62929585
C       -0.81598159       8.59210561       3.60347821
C        0.58243833       8.56838859       3.46972755
C        1.36956190       9.64114165       3.89761919
C        0.76559728      10.76085349       4.46373472
C       -0.62190496      10.80035884       4.59550241
Br      -1.44080984      12.32974579       5.35299375
C       -1.40916230       9.72962144       4.17052037
H       -2.91501708       0.12682282       2.59299782
H       -4.36655160       1.56213769       4.00336101
H       -4.07115355       4.02984905       3.97419448
H       -0.86815445       3.63845378       1.14702263
H       -0.37815528       5.77617133       3.66732257
H       -2.64508938       6.46494735       0.08558462
H       -4.28053861       7.11445381       0.36974644
H       -4.23524809       2.54479061      -1.65614328
H       -5.96296768       5.04783158       1.40930627
H        1.06290120       7.71223239       3.00221333
H        2.44706321       9.60049409       3.77594417
H        1.37788586      11.59575758       4.78850099
H       -2.49169618       9.76446182       4.26675212
C        1.79256696      -1.79256696       1.79256696
C        3.08941929      -1.37837312       2.10064988
C        3.90354295      -2.18840862       2.89146927
C        3.41794988      -3.40853621       3.36420563
C        2.11767331      -3.82569768       3.05220779
C        1.29860072      -3.00431823       2.27176030
C        1.62305861      -5.11252219       3.54219748
C        0.71517724      -5.31317339       4.63381340
C        0.72662181      -6.63137022       4.86250677
N        1.54608645      -7.39668137       4.10406111
N        2.24242381      -6.38552605       3.18266892
C        1.98102846      -6.79029247       1.78328051
N        2.70737424      -5.94814516       0.82346785
N        2.04792948      -5.36809080      -0.22049779
C        3.01262796      -4.69638665      -0.85840317
C        4.28413178      -4.92058831      -0.30085152
Cl       5.74680027      -4.27482462      -0.85338117
C        4.06744275      -5.76298622       0.75669985
C       -0.13818413      -7.28131252       5.86843702
C       -1.45740696      -6.84229648       6.07078830
C       -2.29666414      -7.47113725       6.99472584
C       -1.82751026      -8.55688113       7.72962007
C       -0.52268712      -9.00733563       7.53311771
Br       0.10752739     -10.49213448       8.52388750
C        0.31714770      -8.37969357       6.61246284
H        3.47469869      -0.43570355       1.72443547
H        4.91686898      -1.88216120       3.13302011
H        4.04983956      -4.05634932       3.96900820
H        0.29887125      -3.34132623       2.01343338
H        0.15066065      -4.54420123       5.12678730
H        0.91469262      -6.75540355       1.52552519
H        2.35067280      -7.80841931       1.60564675
H        2.74533448      -4.08673268      -1.70817175
H        4.71825971      -6.20703647       1.49480935
H       -1.84436343      -6.01436157       5.48154638
H       -3.31380121      -7.11678810       7.12638816
H       -2.48305039      -9.04836063       8.44106248
H        1.33210836      -8.73638648       6.45441528
C       -0.00445707       0.01189536      -1.78238275
H       -0.66409135       0.67374010      -2.43557963
H        0.65740317      -0.63156657      -2.45157240
C       -0.90989263      -0.90692880      -0.91072765
C        0.90977584       0.90977584      -0.90977584
C       -0.00465871       1.77757030       0.00794375
H       -0.66225468       2.44313916      -0.64384735
H        0.64322798       2.43503045       0.67728295
C       -1.78241447       0.00034974      -0.00472694
H       -2.45427497      -0.65498947       0.64260836
H       -2.43311707       0.67328779      -0.65473579
C       -0.91132561       0.90220522       0.91563759
C       -0.01476271      -0.02253852       1.78660255
H       -0.67934791      -0.69751639       2.42135241
H        0.63392994       0.61504881       2.47327442
C        0.01484550      -1.77751727      -0.01636693
H        0.67870853      -2.42144646      -0.68295456
H       -0.62264859      -2.45592969       0.64226336
C        1.78714474       0.01002794       0.00389507
H        2.44202412       0.67113390       0.66197326
H        2.45385902      -0.65136977      -0.64189061
C        0.91606151      -0.90478549       0.90901405
