161
Properties=species:S:1:pos:R:3 pbc="F F F"
C        0.00000000       0.00000000       0.00000000
C        0.88266294       0.88266294      -0.88266294
C        1.00306412       2.24275336      -0.59291273
C        1.79369389       3.05458148      -1.40543339
C        2.45386598       2.50275040      -2.50436327
C        2.33030271       1.13851063      -2.79705337
C        1.54910837       0.32419161      -1.97166720
C        3.01624959       0.57281717      -3.95899944
C        4.21266506      -0.21727367      -3.93706056
C        4.59134116      -0.31696650      -5.21641207
N        3.84606876       0.32380882      -6.14723929
N        2.74518274       1.00953179      -5.32619218
C        1.43768527       0.54559002      -5.84161407
N        0.31546374       1.23880538      -5.19500607
N       -0.71447479       0.52614310      -4.65414210
C       -1.52375548       1.47456744      -4.17008742
C       -1.07973676       2.77207377      -4.48181949
Cl      -1.85368992       4.21957852      -4.07264305
C        0.08580024       2.59360938      -5.17800713
C        5.75112026      -1.12146303      -5.65219611
C        6.03750207      -2.35487740      -5.04334107
C        7.11116733      -3.14151558      -5.46983512
C        7.91481356      -2.70573148      -6.52019679
C        7.63704909      -1.48705052      -7.13805557
C        6.56670563      -0.69958356      -6.71246996
H        0.48111642       2.67780062       0.25379141
H        1.89061701       4.11559920      -1.19612201
H        3.06086363       3.12981194      -3.15480943
H        1.43778979      -0.72857113      -2.21470013
H        4.66868389      -0.63688413      -3.06013735
H        1.29044109      -0.53403650      -5.70950470
H        1.34257688       0.78354800      -6.90890191
H       -2.40632365       1.17499050      -3.62551649
H        0.79867447       3.27622595      -5.61549303
H        5.39924063      -2.71939710      -4.24198891
H        7.30606600      -4.09368126      -4.98727824
H        8.74336863      -3.32139841      -6.85469042
H        6.34624900       0.24710517      -7.19984388
C        8.46328720      -1.04351804      -8.23085451
C        9.15526161      -0.67205958      -9.14607363
Br      10.27412571      -0.07144266     -10.62590553
C       -0.88266294      -0.88266294      -0.88266294
C       -1.42064540      -0.35879969      -2.05928512
C       -2.23991689      -1.15526264      -2.85852923
C       -2.51992695      -2.46732680      -2.47372589
C       -1.98274599      -2.99190779      -1.29121292
C       -1.14936834      -2.19577771      -0.49982113
C       -2.29312709      -4.36441131      -0.89052781
C       -1.42519867      -5.49982752      -1.00742577
C       -2.19499626      -6.55990042      -0.73589005
N       -3.50453250      -6.33871840      -0.47386597
N       -3.65332250      -4.81705212      -0.61053209
C       -4.19360099      -4.29653570       0.66524733
N       -4.48349241      -2.85823978       0.59245701
N       -4.00232107      -2.00971463       1.54622528
C       -4.45962899      -0.81555889       1.15428850
C       -5.30278736      -0.90351705       0.03214791
Cl      -6.09519025       0.38382225      -0.72716366
C       -5.33569648      -2.23470191      -0.28701835
C       -1.67113177      -7.93960349      -0.67111808
C       -0.40559892      -8.20081489      -0.11955194
C        0.08662115      -9.50520790      -0.02090012
C       -0.68610340     -10.57290551      -0.47026995
C       -1.94692861     -10.32816839      -1.01295714
C       -2.43922193      -9.02650509      -1.11386502
H       -1.21500420       0.66523872      -2.35536016
H       -2.67106326      -0.75857212      -3.77270284
H       -3.17094114      -3.09309550      -3.08144836
H       -0.75282365      -2.59871999       0.42762485
H       -0.37922531      -5.46498218      -1.24772962
H       -3.51407898      -4.46284292       1.51101261
H       -5.15733094      -4.77019574       0.89249988
H       -4.16834525       0.06051012       1.71365179
H       -5.82607777      -2.79692641      -1.06738928
H        0.19440250      -7.37801260       0.26177766
H        1.06434979      -9.68007354       0.41606078
H       -0.30522390     -11.58545733      -0.38597942
H       -3.42569407      -8.83722568      -1.53027830
C       -2.74835443     -11.43487810      -1.46739114
C       -3.41954856     -12.36174749      -1.84797961
Br      -4.50481270     -13.86041689      -2.46335898
C       -0.88266294       0.88266294       0.88266294
C       -1.68039547       1.86488119       0.29345355
C       -2.47413211       2.68323627       1.09634038
C       -2.46102592       2.51780900       2.48214472
C       -1.65789845       1.53433755       3.07363071
C       -0.87477708       0.70533260       2.26485750
C       -1.64183579       1.37797170       4.52825871
C       -2.30283911       0.35057609       5.27903676
C       -2.20245991       0.73030405       6.55802277
N       -1.58855773       1.90783295       6.82072619
N       -1.20844868       2.44034133       5.43211670
C        0.25450329       2.66383339       5.41555926
N        0.70039862       3.28730628       4.16236752
N        1.73117184       2.74487482       3.45210744
C        1.84597223       3.56499282       2.40187878
C        0.97964110       4.66979030       2.48400730
Cl       0.86231885       5.93435036       1.36650015
C        0.28042270       4.49027280       3.64756664
C       -2.69186081      -0.09282295       7.68281548
C       -2.55780721      -1.49121856       7.65937709
C       -2.98528903      -2.27819997       8.73239781
C       -3.55129093      -1.67411336       9.85210130
C       -3.68335567      -0.28663151       9.89132998
C       -3.25878304       0.50048347       8.82032553
H       -1.68370811       2.00456957      -0.78315204
H       -3.09407487       3.45610959       0.65215376
H       -3.06429956       3.16126179       3.11992366
H       -0.23650824      -0.04120053       2.72861108
H       -2.75622909      -0.53128386       4.86699188
H        0.82516087       1.73659105       5.55447911
H        0.54078176       3.37212072       6.20368783
H        2.56567457       3.32626953       1.63358838
H       -0.49960409       5.05386526       4.13692411
H       -2.09037576      -1.97176709       6.80322376
H       -2.86338551      -3.35568338       8.69196085
H       -3.87573830      -2.28628947      10.68721181
H       -3.35524567       1.58300377       8.85494861
C       -4.25946032       0.33643890      11.05472445
C       -4.74194797       0.85826037      12.02906732
Br      -5.52208969       1.70200155      13.60449733
C        0.88266294      -0.88266294       0.88266294
C        1.13076295      -2.20323553       0.50473173
C        1.92146493      -3.01666675       1.31557708
C        2.45403134      -2.50644847       2.50049984
C        2.20224565      -1.18221334       2.88140772
C        1.42166787      -0.36460208       2.05869723
C        2.75474142      -0.66129843       4.13202636
C        3.88353760       0.21334114       4.26225550
C        4.15870612       0.23925296       5.57133357
N        3.40027498      -0.52563838       6.39120351
N        2.41980492      -1.22307473       5.43802705
C        1.04565333      -0.89796688       5.88126916
N        0.03181961      -1.61816366       5.09929192
N       -1.00883056      -0.94222251       4.53241846
C       -1.70328954      -1.90610602       3.91808289
C       -1.18231790      -3.18823875       4.16823565
Cl      -1.80777581      -4.65163450       3.59467297
C       -0.08845796      -2.98055592       4.96531880
C        5.21650663       1.08945133       6.15479804
C        5.44846184       2.38464311       5.66214702
C        6.42273392       3.21152856       6.22828151
C        7.17935552       2.75416230       7.30408564
C        6.95414844       1.47353819       7.80744389
C        5.98317790       0.64599979       7.24241393
H        0.70798832      -2.60713513      -0.40999781
H        2.11676786      -4.04795596       1.03761439
H        3.05943702      -3.13681930       3.14922868
H        1.21024040       0.65476979       2.36844817
H        4.36788995       0.73296952       3.45701667
H        0.82379382       0.17506537       5.81718084
H        0.89189335      -1.22563973       6.91749371
H       -2.56458427      -1.62979995       3.32896766
H        0.64214732      -3.64163593       5.40661021
H        4.84369587       2.76360672       4.84174329
H        6.57668395       4.21046074       5.83343976
H        7.93013724       3.40041544       7.74693885
H        5.80303428      -0.34973390       7.64042988
C        7.73074199       1.00677293       8.92665462
C        8.38113908       0.61585702       9.86399361
Br       9.43277616      -0.01622093      11.37959147
