161
Properties=species:S:1:pos:R:3 pbc="F F F"
C        0.00000000       0.00000000       0.00000000
C        0.88164836       0.88164836      -0.88164836
C        2.19194459       0.50138331      -1.15008705
C        2.99458768       1.31027992      -1.96019172
C        2.49860568       2.50500854      -2.51163107
C        1.17475518       2.87026560      -2.22522957
C        0.36865160       2.06278864      -1.41370893
C        3.35537195       3.33403969      -3.36921183
C        3.03114864       4.52060488      -4.07317896
C        4.17180033       4.92429266      -4.75225841
C        4.35547341       6.11469700      -5.59462120
C        5.09747737       6.09573646      -6.78192352
C        5.23989398       7.24976708      -7.56226775
C        4.60962637       8.42878554      -7.17882999
C        3.84328798       8.46805034      -6.02047065
C        3.72221271       7.31719822      -5.23254203
N        5.10979337       3.96646181      -4.42703902
C        6.51263608       3.88176440      -4.79741191
N        6.74108111       3.08567278      -5.99517885
N        7.71454866       3.46461484      -6.86226075
C        7.66329226       2.53437079      -7.82232529
C        6.67256117       1.57008513      -7.57966820
Cl       6.28976907       0.24670727      -8.55908882
C        6.10240103       1.93909075      -6.38795267
N        4.63911332       3.02047499      -3.58242724
H        2.60182659      -0.41788718      -0.73988856
H        4.01779753       0.99747902      -2.16153440
H        0.74554161       3.78522953      -2.62460776
H       -0.65449673       2.36407090      -1.20561900
H        2.07678139       5.02759687      -4.09579971
H        5.56218024       5.18880063      -7.14766193
H        5.83427746       7.20744307      -8.47295072
H        3.33517261       9.37831442      -5.72044460
H        3.12133844       7.37401086      -4.32561077
H        7.06711833       3.40697493      -3.98075100
H        6.90384539       4.89130202      -4.95077452
H        8.34871831       2.60039716      -8.65698167
H        5.30767736       1.49447809      -5.80464218
C        4.74146487       9.60966514      -7.99230523
C        4.85187962      10.59865181      -8.67359075
Br       5.03041093      12.19775961      -9.77517181
C       -0.88164836      -0.88164836      -0.88164836
C       -2.17871830      -0.48143122      -1.18326544
C       -2.98134036      -1.29047296      -1.99324600
C       -2.49847973      -2.50526363      -2.51150193
C       -1.18791226      -2.89038618      -2.19195191
C       -0.38188656      -2.08280264      -1.38045998
C       -3.35468180      -3.33432152      -3.36962014
C       -3.04039516      -4.54063752      -4.04389979
C       -4.17542456      -4.93548136      -4.73744548
C       -4.36623204      -6.13852375      -5.56003583
C       -5.08455554      -6.12865988      -6.76192193
C       -5.23460566      -7.29491615      -7.52240701
C       -4.63532690      -8.47812122      -7.10379378
C       -3.89251859      -8.50932568      -5.92996470
C       -3.76401153      -7.34568293      -5.16225850
N       -5.10042460      -3.95340032      -4.44946928
C       -6.49387329      -3.84885857      -4.84908053
N       -6.68326585      -3.07232613      -6.06634076
N       -7.64704069      -3.44939266      -6.94499090
C       -7.55879540      -2.53948241      -7.92171053
C       -6.55408257      -1.58997815      -7.67825377
Cl      -6.12628007      -0.29389584      -8.67538925
C       -6.01454393      -1.94633367      -6.46856685
N       -4.62759666      -3.00020211      -3.61421678
H       -2.57821998       0.45354482      -0.79915282
H       -3.99406892      -0.96193382      -2.22080821
H       -0.76921107      -3.82121819      -2.56494964
H        0.63087745      -2.39969296      -1.14637766
H       -2.09598001      -5.06638687      -4.03781109
H       -5.52405608      -5.22029330      -7.15429342
H       -5.81026679      -7.25909048      -8.44531399
H       -3.40841389      -9.42316029      -5.60235745
H       -3.18207582      -7.39619172      -4.24269252
H       -7.05458944      -3.34735246      -4.05290235
H       -6.90192039      -4.85345614      -4.99054540
H       -8.22908069      -2.60869705      -8.76831940
H       -5.22264379      -1.50576696      -5.87838687
C       -4.77469146      -9.67207638      -7.89666741
C       -4.89140927     -10.67201382      -8.56069908
Br      -5.08013211     -12.28882810      -9.63438213
C       -0.88164836       0.88164836       0.88164836
C       -0.47234935       2.17212861       1.19893699
C       -1.28417878       2.97677339       2.00410716
C       -2.51222926       2.50353390       2.49948214
C       -2.90374431       1.19760474       2.16890129
C       -2.09266415       0.38904194       1.36344309
C       -3.35480838       3.36954679       3.33426830
C       -4.64338409       3.11494669       3.86660169
C       -5.02862218       4.24300628       4.57672295
C       -6.26628220       4.45893185       5.33957756
C       -6.95027857       5.68071098       5.34414780
C       -8.13303180       5.84273106       6.07616595
C       -8.66317774       4.76960141       6.78446274
C       -8.02043264       3.53778439       6.77359194
C       -6.82665852       3.38741442       6.05788002
N       -3.96394380       5.10807481       4.43127560
C       -3.76306277       6.43162103       4.99712859
N       -4.20301516       7.50367855       4.11523904
N       -4.77537747       8.60915738       4.65688940
C       -5.04632003       9.37772295       3.59594537
C       -4.65559456       8.77845246       2.38826747
Cl      -4.83688416       9.42261108       0.83606992
C       -4.10065512       7.57769050       2.75109882
N       -2.94634920       4.58852172       3.70714463
H        0.47049350       2.56592225       0.82839923
H       -0.94959861       3.98511866       2.24209367
H       -3.84195257       0.78425566       2.52917067
H       -2.41578355      -0.61920233       1.11861195
H       -5.23529457       2.21853716       3.74634625
H       -6.60430402       6.52827558       4.76606320
H       -8.63479763       6.80846134       6.07141228
H       -8.43344210       2.69028772       7.31020180
H       -6.33763750       2.41400317       6.06931940
H       -2.69353673       6.58018957       5.18111795
H       -4.29850762       6.49925723       5.94815708
H       -5.51753609      10.33969504       3.74886600
H       -3.65864625       6.78474395       2.16340743
C       -9.88959019       4.93251654       7.52132851
C      -10.91671062       5.06895796       8.13845359
Br     -12.57747748       5.28957220       9.13629265
C        0.88164836      -0.88164836       0.88164836
C        0.43182241      -2.13751035       1.27408219
C        1.24366153      -2.94245608       2.07894171
C        2.51202986      -2.50410015       2.49911529
C        2.94417353      -1.23259114       2.09348568
C        2.13323809      -0.42378116       1.28812993
C        3.35324809      -3.37040331       3.33497207
C        4.67426622      -3.15139488       3.79927137
C        5.04212495      -4.26400889       4.54221757
C        6.30243166      -4.50238342       5.25997653
C        6.93265067      -5.75239676       5.29008992
C        8.13909156      -5.93582654       5.97701072
C        8.74635511      -4.85813747       6.61274931
C        8.15745595      -3.60023525       6.57411777
C        6.94024797      -3.42723382       5.90447117
N        3.93568579      -5.08570988       4.48189854
C        3.70364287      -6.37324875       5.11492077
N        4.05681856      -7.50104216       4.26407203
N        4.60482278      -8.60680772       4.82979375
C        4.79433177      -9.43180359       3.79385297
C        4.37579798      -8.86814552       2.57837100
Cl       4.45906362      -9.58610914       1.05039241
C        3.89002698      -7.62908793       2.91032954
N        2.90984557      -4.55254130       3.77962868
H       -0.54284652      -2.50404082       0.96263368
H        0.87699604      -3.92351469       2.37630022
H        3.91459715      -0.84677703       2.39400472
H        2.48815248       0.55739786       0.98443855
H        5.29824028      -2.28857086       3.61336684
H        6.52478590      -6.60764302       4.76621388
H        8.59804899      -6.92248311       5.99413915
H        8.63035431      -2.74986342       7.05371390
H        6.49464270      -2.43319711       5.89312026
H        2.63808114      -6.46542769       5.35133543
H        4.27796602      -6.42388503       6.04407088
H        5.23006248     -10.40653831       3.96949635
H        3.45658033      -6.84310211       2.30711519
C        9.99655008      -5.04421806       7.30266710
C       11.04358837      -5.20006056       7.88047325
Br      12.73656072      -5.45204470       8.81473692
