153
Properties=species:S:1:pos:R:3 pbc="F F F"
C        0.00000000       0.00000000       0.00000000
C        0.88164836       0.88164836      -0.88164836
C        2.19194459       0.50138331      -1.15008705
C        2.99458768       1.31027992      -1.96019172
C        2.49860568       2.50500854      -2.51163107
C        1.17475518       2.87026560      -2.22522957
C        0.36865160       2.06278864      -1.41370893
C        3.35537195       3.33403969      -3.36921183
C        3.03114864       4.52060488      -4.07317896
C        4.17180033       4.92429266      -4.75225841
C        4.35547341       6.11469700      -5.59462120
C        5.09747737       6.09573646      -6.78192352
C        5.23989398       7.24976708      -7.56226775
C        4.60962637       8.42878554      -7.17882999
Br       4.78270581       9.97906089      -8.24677173
C        3.84328798       8.46805034      -6.02047065
C        3.72221271       7.31719822      -5.23254203
N        5.10979337       3.96646181      -4.42703902
C        6.51263608       3.88176440      -4.79741191
N        6.74108111       3.08567278      -5.99517885
N        7.71454866       3.46461484      -6.86226075
C        7.66329226       2.53437079      -7.82232529
C        6.67256117       1.57008513      -7.57966820
Cl       6.28976907       0.24670727      -8.55908882
C        6.10240103       1.93909075      -6.38795267
N        4.63911332       3.02047499      -3.58242724
H        2.60182659      -0.41788718      -0.73988856
H        4.01779753       0.99747902      -2.16153440
H        0.74554161       3.78522953      -2.62460776
H       -0.65449673       2.36407090      -1.20561900
H        2.07678139       5.02759687      -4.09579971
H        5.56218024       5.18880063      -7.14766193
H        5.83427746       7.20744307      -8.47295072
H        3.33517261       9.37831442      -5.72044460
H        3.12133844       7.37401086      -4.32561077
H        7.06711833       3.40697493      -3.98075100
H        6.90384539       4.89130202      -4.95077452
H        8.34871831       2.60039716      -8.65698167
H        5.30767736       1.49447809      -5.80464218
C       -0.88164836      -0.88164836      -0.88164836
C       -2.15719943      -0.45353379      -1.23268174
C       -2.95980004      -1.26278692      -2.04247236
C       -2.49830692      -2.50564159      -2.51129678
C       -1.20933820      -2.91853223      -2.14237991
C       -0.40342304      -2.11078895      -1.33093718
C       -3.35365438      -3.33477885      -3.37019024
C       -3.05587790      -4.56893849      -4.00011609
C       -4.18173379      -4.95139920      -4.71521841
C       -4.38428405      -6.17220206      -5.50830550
C       -5.06731284      -6.17720037      -6.73062414
C       -5.22983372      -7.36058477      -7.46151032
C       -4.67790318      -8.54760859      -6.99173012
Br      -4.87710106     -10.13915936      -7.99227801
C       -3.97023604      -8.56546028      -5.79611265
C       -3.82952371      -7.38385787      -5.05857138
N       -5.08525911      -3.93518872      -4.48284638
C       -6.46301475      -3.80262893      -4.92616871
N       -6.59452997      -3.05719665      -6.17020613
N       -7.54345438      -3.43225023      -7.06571963
C       -7.40052049      -2.55441141      -8.06505644
C       -6.37564725      -1.62729010      -7.81937714
Cl      -5.88148031      -0.37392475      -8.84016010
C       -5.88168468      -1.96314436      -6.58461541
N       -4.60865017      -2.97171749      -3.66164789
H       -2.53980920       0.50340430      -0.88742307
H       -3.95548106      -0.91224573      -2.30908416
H       -0.80774113      -3.87155179      -2.47608599
H        0.59245000      -2.44950005      -1.05814312
H       -2.12792466      -5.12109378      -3.95115953
H       -5.46844884      -5.26858274      -7.16161122
H       -5.77753996      -7.33550637      -8.40162492
H       -3.52284108      -9.48272609      -5.42836445
H       -3.27588519      -7.42388501      -4.12118986
H       -7.03126790      -3.26203996      -4.16153639
H       -6.89626808      -4.79886850      -5.05078536
H       -8.04804956      -2.62932850      -8.92871908
H       -5.09436297      -1.52822460      -5.98421006
C       -0.88164836       0.88164836       0.88164836
C       -0.46042305       2.16287692       1.22011497
C       -1.27225795       2.96760519       2.02519618
C       -2.51217716       2.50369294       2.49937520
C       -2.91564589       1.20695954       2.14764492
C       -2.10460500       0.39832680       1.34221738
C       -3.35436878       3.36979860       3.33445609
C       -4.65256208       3.12479276       3.84757763
C       -5.03268040       4.24871826       4.56695275
C       -6.27703264       4.47067576       5.31708321
C       -6.94586620       5.70077641       5.32849474
C       -8.13560076       5.86853051       6.04779754
C       -8.68781149       4.79344550       6.73598490
Br     -10.30708448       5.01548948       7.68596446
C       -8.06026807       3.55390315       6.71763775
C       -6.85957445       3.39745760       6.01492091
N       -3.95564386       5.10211636       4.44553399
C       -3.74550859       6.41594143       5.03036237
N       -4.16108477       7.50425288       4.15659510
N       -4.72646747       8.61002901       4.70492777
C       -4.97457162       9.39499361       3.65042312
C       -4.57619323       8.80586157       2.44025970
Cl      -4.73004410       9.47139261       0.89412845
C       -4.04073849       7.59384639       2.79485957
N       -2.93556400       4.57885579       3.72759575
H        0.49178628       2.54938370       0.86623056
H       -0.92823677       3.96865940       2.27991478
H       -3.86333465       0.80096932       2.49107493
H       -2.43708021      -0.60268530       1.08079826
H       -5.25396363       2.23742374       3.70879060
H       -6.58221965       6.55102737       4.76539578
H       -8.62528270       6.84045480       6.04893376
H       -8.49041881       2.70507282       7.23843999
H       -6.38281411       2.41793045       6.02021550
H       -2.67661498       6.54881455       5.22941472
H       -4.29194587       6.47850914       5.97546692
H       -5.43572996      10.36082713       3.80954004
H       -3.60124616       6.80275639       2.20279508
C        0.88164836      -0.88164836       0.88164836
C        0.42321352      -2.12885359       1.29134784
C        1.23505106      -2.93387031       2.09613795
C        2.51197833      -2.50423102       2.49903594
C        2.95275603      -1.24133338       2.07616093
C        2.14185595      -0.43246699       1.27082623
C        3.35288941      -3.37058560       3.33514846
C        4.68070103      -3.16036258       3.78386886
C        5.04487544      -4.26912295       4.53435302
C        6.30995422      -4.51306593       5.24177147
C        6.92782670      -5.76905915       5.27825151
C        8.13928478      -5.95782558       5.95481845
C        8.76380638      -4.88002240       6.57341312
Br      10.41166565      -5.13186202       7.46501075
C        8.18724231      -3.61664723       6.52791943
C        6.96508895      -3.43802458       5.86883943
N        3.92966105      -5.08009140       4.49354176
C        3.69111544      -6.35876290       5.14193405
N        4.02424178      -7.49860212       4.29908885
N        4.56680928      -8.60413211       4.87048286
C        4.73745210      -9.44140380       3.84113244
C        4.31227244      -8.88578629       2.62425577
Cl       4.37275516      -9.61991096       1.10289904
C        3.84240620      -7.63857090       2.94846735
N        2.90215104      -4.54361382       3.79625069
H       -0.55821507      -2.48856766       0.99347538
H        0.86156838      -3.90810376       2.40713881
H        3.93002276      -0.86240453       2.36295161
H        2.50352552       0.54194262       0.95361027
H        5.31140905      -2.30584679       3.58292213
H        6.50606154      -6.62534429       4.76723696
H        8.58843328      -6.94887755       5.97736042
H        8.67353483      -2.76634353       6.99405326
H        6.52942434      -2.43967089       5.85186484
H        2.62713963      -6.43771163       5.38999299
H        4.27432204      -6.40587955       6.06572034
H        5.16510889     -10.41870251       4.02228574
H        3.41078275      -6.85433086       2.34168402
