162
Properties=species:S:1:pos:R:3 pbc="F F F"
C        1.77689986       1.77689986      -1.77689986
C        1.35526451       2.48237483      -2.90997945
N        2.35753715       3.17239048      -3.46687144
N        3.42105947       2.88298461      -2.67821454
C        3.11142434       2.04813771      -1.63834715
C        4.72155351       3.47783396      -2.95658159
C        5.53883720       2.57532662      -3.80542535
C        5.36586248       2.07839038      -5.08088228
C        6.49837430       1.28240314      -5.35550184
C        7.30951760       1.33841343      -4.23767270
O        6.72142278       2.12791210      -3.28263695
C        8.60141124       0.72172954      -3.99215318
O        9.14964171       0.03787482      -4.84819636
N        9.11025466       0.96871320      -2.72347591
C       10.35941117       0.55694979      -2.19508153
C       11.35020575      -0.01273742      -3.01180764
C       12.58216484      -0.42572325      -2.49419222
C       12.84615393      -0.27192338      -1.14308102
Br      14.50173186      -0.83904770      -0.43419597
C       11.89090444       0.30291282      -0.31169421
C       10.64228973       0.72918440      -0.82365374
C        9.68124992       1.33786478       0.16505979
F        9.37609332       0.48923981       1.18560522
F       10.18410278       2.45954432       0.75219506
F        8.48405751       1.71305922      -0.37214662
H        0.37020469       2.53189594      -3.35563933
H        3.85163898       1.72858229      -0.91887610
H        5.20426914       3.67738945      -1.99424377
H        4.55067647       4.43653177      -3.45842213
H        4.51894754       2.26933937      -5.72811464
H        6.71715434       0.72940683      -6.25971803
H        8.46643709       1.46327199      -2.10873535
H       11.20848871      -0.14255007      -4.08102101
H       13.31990576      -0.86327467      -3.16271060
H       12.10616016       0.42376885       0.75010307
C       -1.77689986      -1.77689986      -1.77689986
C       -2.43568333      -2.94272058      -1.36921488
N       -3.13906528      -3.49055495      -2.36717884
N       -2.90529347      -2.66258471      -3.41438045
C       -2.09237332      -1.60746571      -3.09807016
C       -3.53080803      -2.92049711      -4.70466391
C       -2.62890479      -3.71724244      -5.57344195
C       -2.08969259      -4.98160087      -5.45384169
C       -1.32063327      -5.19859501      -6.61705100
C       -1.43400195      -4.05962043      -7.39198135
O       -2.23305696      -3.14662102      -6.75229385
C       -0.86419703      -3.75768379      -8.69341313
O       -0.17239397      -4.57614886      -9.28717006
N       -1.16364916      -2.48266111      -9.15613351
C       -0.80560101      -1.90556183     -10.40027966
C       -0.24241875      -2.67519604     -11.43166118
C        0.11768818      -2.10933449     -12.65898750
C       -0.08367210      -0.75632537     -12.87731409
Br       0.41198932       0.01775107     -14.52662052
C       -0.65350581       0.02884515     -11.88085081
C       -1.02654858      -0.53225727     -10.63632203
C       -1.63464430       0.40890501      -9.62831561
F       -0.80752614       1.44526802      -9.31746979
F       -2.78780378       0.97633332     -10.07998156
F       -1.95747041      -0.17436421      -8.43742873
H       -2.44223914      -3.41843049      -0.39707033
H       -1.81665684      -0.85720778      -3.82523276
H       -3.77308089      -1.95087288      -5.15194860
H       -4.46873105      -3.45593885      -4.52096048
H       -2.23580942      -5.65892617      -4.62166595
H       -0.74818162      -6.07883363      -6.87926395
H       -1.65633971      -1.90236142      -8.47974331
H       -0.07701038      -3.74369148     -11.32625780
H        0.55215875      -2.74233003     -13.42917040
H       -0.81197414       1.09236331     -12.06021512
C       -1.77689986       1.77689986       1.77689986
C       -2.97172022       1.38442123       2.39147735
N       -3.51155637       2.37774570       3.10749700
N       -2.64874203       3.40710257       2.92641402
C       -1.58012388       3.08353862       2.13424670
C       -2.88861820       4.68644621       3.58090465
C       -3.63522827       5.60198943       2.68237147
C       -4.88661025       5.53318492       2.10533998
C       -5.04957235       6.72283391       1.36387302
C       -3.89334175       7.46174814       1.53051383
O       -3.02133853       6.77465589       2.33597741
C       -3.53961694       8.76930970       1.00636732
O       -4.32146592       9.40487133       0.30937563
N       -2.26132507       9.18727248       1.35384622
C       -1.64023423      10.42395661       1.04725165
C       -2.36487375      11.49187119       0.49253104
C       -1.75541711      12.71212394       0.18309277
C       -0.40315575      12.88637724       0.42777858
Br       0.42982683      14.52611451       0.00059245
C        0.33778186      11.85272987       0.99056347
C       -0.26776020      10.61479664       1.31257102
C        0.62764445       9.56413879       1.91756056
F        1.67807436       9.24695803       1.11084424
F        1.17439142       9.96758163       3.09826181
F        0.00285493       8.38181803       2.19030025
H       -3.47404015       0.42634057       2.35735925
H       -0.80259367       3.79646571       1.90003799
H       -1.91429066       5.09921826       3.86239345
H       -3.45529114       4.49221112       4.49812812
H       -5.59048582       4.71683173       2.20908400
H       -5.90566838       7.02557203       0.77503878
H       -1.71408891       8.48138154       1.84297399
H       -3.43075037      11.42139702       0.29481227
H       -2.35437292      13.51162317      -0.24665441
H        1.40092049      11.99743951       1.18330692
C        1.77689986      -1.77689986       1.77689986
C        3.14129188      -1.58362359       2.02270331
N        3.63530106      -2.51796680       2.84353120
N        2.56783950      -3.31184049       3.10257863
C        1.42065706      -2.89396009       2.48329205
C        2.70538404      -4.45384766       3.99673736
C        3.00442949      -5.68755021       3.22760948
C        4.05819154      -6.05199675       2.41494686
C        3.78944369      -7.36723247       1.97960312
C        2.58930881      -7.74303698       2.55325794
O        2.10265380      -6.71266908       3.31664895
C        1.86240788      -8.99673301       2.45615306
O        2.30121118      -9.93403999       1.80046172
N        0.65597496      -9.00186983       3.14459899
C       -0.25533426     -10.07790011       3.28887664
C        0.07912284     -11.38204151       2.88811162
C       -0.81861542     -12.44600127       3.02324796
C       -2.07252372     -12.22212480       3.56771049
Br      -3.29501167     -13.65057515       3.74131664
C       -2.42720170     -10.94473613       3.98797704
C       -1.52649317      -9.86054573       3.86107531
C       -2.01347712      -8.51978453       4.34774749
F       -3.14836216      -8.11541957       3.71267050
F       -2.31444910      -8.52959295       5.67630817
F       -1.11799207      -7.50290782       4.18434760
H        3.79897683      -0.80933345       1.64942969
H        0.48351819      -3.42014053       2.59543865
H        1.77128671      -4.54367634       4.56093932
H        3.51154963      -4.23010794       4.70397281
H        4.91329936      -5.43525751       2.16784467
H        4.39195962      -7.98647523       1.32784434
H        0.40106890      -8.09831228       3.53906326
H        1.05295866     -11.62281290       2.47118809
H       -0.51839011     -13.43943146       2.69830034
H       -3.41445538     -10.77595729       4.41832403
C       -0.00445707       0.01189536      -1.78238275
H       -0.66409135       0.67374010      -2.43557963
H        0.65740317      -0.63156657      -2.45157240
C       -0.90989263      -0.90692880      -0.91072765
C        0.90977584       0.90977584      -0.90977584
C       -0.00465871       1.77757030       0.00794375
H       -0.66225468       2.44313916      -0.64384735
H        0.64322798       2.43503045       0.67728295
C       -1.78241447       0.00034974      -0.00472694
H       -2.45427497      -0.65498947       0.64260836
H       -2.43311707       0.67328779      -0.65473579
C       -0.91132561       0.90220522       0.91563759
C       -0.01476271      -0.02253852       1.78660255
H       -0.67934791      -0.69751639       2.42135241
H        0.63392994       0.61504881       2.47327442
C        0.01484550      -1.77751727      -0.01636693
H        0.67870853      -2.42144646      -0.68295456
H       -0.62264859      -2.45592969       0.64226336
C        1.78714474       0.01002794       0.00389507
H        2.44202412       0.67113390       0.66197326
H        2.45385902      -0.65136977      -0.64189061
C        0.91606151      -0.90478549       0.90901405
