166
Properties=species:S:1:pos:R:3 pbc="F F F"
C        1.79136369       1.79136369      -1.79136369
C        2.36584444       1.26023574      -2.94248128
C        3.17324006       2.07067574      -3.74080303
C        3.41777056       3.40097877      -3.38678053
C        2.82243217       3.93302674      -2.24413354
C        2.01115466       3.12382607      -1.44183490
O        4.22781852       4.07711984      -4.24839881
C        4.88970518       5.23898528      -3.74897036
N        6.09601537       5.41294971      -4.55210241
N        6.27801547       6.51328727      -5.31171218
C        7.34047108       6.19734607      -6.06286270
C        7.87218676       4.92788793      -5.73727927
C        7.09591404       4.48676168      -4.69567135
N        8.92324989       4.21566847      -6.33613857
S        8.83289429       3.98681370      -8.02434561
O        7.82522372       2.97437567      -8.25316744
O        8.82775294       5.27589852      -8.68126932
C       10.36624270       3.22988765      -8.50816497
C       11.54824218       2.97514740      -7.83526387
C       12.50646238       2.31356013      -8.66256632
C       12.01216315       2.10933928      -9.92614056
S       10.43769255       2.69229624     -10.13462868
H        2.19296740       0.22628710      -3.22927369
H        3.62016295       1.66111096      -4.64452462
H        2.95360323       4.97208632      -1.96065025
H        1.54991452       3.54299668      -0.55114461
H        5.22830215       5.12837874      -2.71237717
H        4.25576918       6.12284380      -3.87240688
H        7.67547142       6.89860110      -6.81721969
H        7.08841084       3.56664905      -4.12984229
H        9.08803615       3.31093459      -5.89547596
H       11.71725836       3.24862167      -6.80074227
H       13.49639047       2.01359484      -8.34069439
C       12.75584779       1.46520312     -10.97762606
C       13.37868368       0.92573909     -11.85824517
Br      14.38575664       0.05347137     -13.28213178
C       -1.79136369      -1.79136369      -1.79136369
C       -2.44718050      -1.23545500      -2.88592596
C       -3.25397851      -2.04631907      -3.68442125
C       -3.41702195      -3.40249180      -3.38601611
C       -2.74077616      -3.95787462      -2.30094167
C       -1.92984810      -3.14824220      -1.49872533
O       -4.23600912      -4.07649996      -4.24082808
C       -4.81616515      -5.29237885      -3.76911681
N       -6.05142365      -5.48796331      -4.52168053
N       -6.21860112      -6.55866047      -5.32575333
C       -7.33104003      -6.26079515      -6.00884467
C       -7.90558346      -5.03637189      -5.59539861
C       -7.10013613      -4.60706117      -4.57114978
N       -9.01789260      -4.34984120      -6.10732311
S       -9.02289340      -4.03677276      -7.78438746
O       -8.07716615      -2.96557002      -8.01003066
O       -8.98927714      -5.29130867      -8.50433497
C      -10.61272398      -3.33518233      -8.15638900
C      -11.77043502      -3.17203074      -7.41618770
C      -12.79911748      -2.52051885      -8.16295250
C      -12.37876977      -2.23204852      -9.43682471
S      -10.79073927      -2.72512258      -9.74875562
H       -2.33817741      -0.18170403      -3.12864674
H       -3.76441417      -1.61707752      -4.54430683
H       -2.80809468      -5.01448541      -2.06375971
H       -1.40532305      -3.58573269      -0.65300008
H       -5.10747530      -5.24820960      -2.71337317
H       -4.14788408      -6.13662639      -3.96650939
H       -7.66956188      -6.94124523      -6.78048510
H       -7.10814578      -3.71565866      -3.96109773
H       -9.20329836      -3.47643060      -5.61471774
H      -11.87441399      -3.50246614      -6.38974217
H      -13.78488448      -2.28597697      -7.77981824
C      -13.20378695      -1.57658176     -10.41830827
C      -13.89473883      -1.02762835     -11.24030076
Br     -15.01194959      -0.14001711     -12.56939308
C       -1.79136369       1.79136369       1.79136369
C       -1.69209800       3.17663085       1.69983261
C       -2.49798424       3.97547717       2.51125742
C       -3.38967322       3.39654530       3.41931134
C       -3.49963881       2.00878143       3.49117221
C       -2.69414927       1.20447127       2.67819508
O       -4.10990847       4.28937652       4.15405217
C       -4.67172764       3.82472489       5.38120828
N       -4.82573514       4.99356756       6.24176479
N       -6.04223538       5.39365370       6.66712583
C       -5.80168195       6.59764374       7.20135416
C       -4.42825281       6.93416228       7.17493887
C       -3.81552297       5.83571770       6.62710641
N       -3.78821297       8.12073680       7.56610715
S       -4.38036252       9.57175033       6.89194076
O       -3.92440789       9.60883229       5.51952665
O       -5.76485515       9.74572944       7.27433619
C       -3.50946480      10.89112617       7.70370435
C       -2.64545985      10.92928050       8.78391310
C       -2.17804295      12.25203985       9.05250603
C       -2.71858466      13.15597201       8.17308632
S       -3.76590205      12.45330053       7.04541489
H       -0.99924461       3.64413255       1.00515102
H       -2.42750846       5.05901221       2.43927785
H       -4.21052235       1.52382854       4.15198892
H       -2.78278589       0.12268030       2.73858963
H       -4.01320976       3.13466269       5.92118561
H       -5.65890873       3.38476865       5.20734249
H       -6.63420755       7.17909395       7.57799071
H       -2.78702001       5.62472044       6.37316173
H       -2.77841861       8.08828051       7.42774758
H       -2.36169060      10.05211708       9.35281462
H       -1.48997114      12.51332938       9.84737918
C       -2.42956405      14.56635736       8.20275556
C       -2.18750930      15.74755509       8.22760355
Br      -1.79612723      17.65745191       8.26778065
C        1.79136369      -1.79136369       1.79136369
C        1.38215472      -3.08506260       2.10134413
C        2.19102043      -3.88317127       2.91052713
C        3.39625413      -3.38989924       3.41937649
C        3.81071325      -2.10088672       3.08799248
C        3.00294833      -1.29807894       2.27578835
O        4.08413882      -4.26922452       4.19997382
C        5.04187362      -3.72691424       5.10887295
N        5.17388894      -4.68576042       6.20141813
N        6.34776951      -5.30160165       6.45364376
C        6.01337844      -6.25521871       7.33208270
C        4.64527404      -6.20500550       7.68707442
C        4.15221063      -5.12234768       7.00378876
N        3.90052298      -7.06415984       8.51037410
S        3.96925417      -8.72930799       8.14549145
O        3.16150908      -8.92915154       6.96210621
O        5.33684089      -9.18726105       8.26081885
C        3.09360655      -9.56230029       9.44838847
C        2.56642651      -9.13713694      10.65509000
C        1.92202394     -10.19673223      11.36383266
C        2.00168815     -11.37711309      10.66884175
S        2.82789901     -11.23763343       9.19908503
H        0.44490838      -3.48264684       1.72097296
H        1.87757306      -4.89710505       3.15112042
H        4.75939557      -1.69890892       3.42803532
H        3.32995267      -0.29313623       2.02096692
H        4.71451331      -2.78684851       5.56769624
H        6.01464127      -3.61746642       4.61891216
H        6.77523307      -6.94770512       7.66835402
H        3.16160814      -4.69901437       6.92427967
H        2.92126563      -6.78932112       8.58385994
H        2.63826948      -8.11670015      11.01165266
H        1.43595368     -10.08879950      12.32592651
C        1.44175966     -12.61755135      11.13936596
C        0.97281956     -13.65641839      11.53342998
Br       0.21458308     -15.33617852      12.17059818
C       -0.00445707       0.01189536      -1.78238275
H       -0.66409135       0.67374010      -2.43557963
H        0.65740317      -0.63156657      -2.45157240
C       -0.90989263      -0.90692880      -0.91072765
C        0.90977584       0.90977584      -0.90977584
C       -0.00465871       1.77757030       0.00794375
H       -0.66225468       2.44313916      -0.64384735
H        0.64322798       2.43503045       0.67728295
C       -1.78241447       0.00034974      -0.00472694
H       -2.45427497      -0.65498947       0.64260836
H       -2.43311707       0.67328779      -0.65473579
C       -0.91132561       0.90220522       0.91563759
C       -0.01476271      -0.02253852       1.78660255
H       -0.67934791      -0.69751639       2.42135241
H        0.63392994       0.61504881       2.47327442
C        0.01484550      -1.77751727      -0.01636693
H        0.67870853      -2.42144646      -0.68295456
H       -0.62264859      -2.45592969       0.64226336
C        1.78714474       0.01002794       0.00389507
H        2.44202412       0.67113390       0.66197326
H        2.45385902      -0.65136977      -0.64189061
C        0.91606151      -0.90478549       0.90901405
