158
Properties=species:S:1:pos:R:3 pbc="F F F"
C        1.79136369       1.79136369      -1.79136369
C        2.36584444       1.26023574      -2.94248128
C        3.17324006       2.07067574      -3.74080303
C        3.41777056       3.40097877      -3.38678053
C        2.82243217       3.93302674      -2.24413354
C        2.01115466       3.12382607      -1.44183490
O        4.22781852       4.07711984      -4.24839881
C        4.88970518       5.23898528      -3.74897036
N        6.09601537       5.41294971      -4.55210241
N        6.27801547       6.51328727      -5.31171218
C        7.34047108       6.19734607      -6.06286270
C        7.87218676       4.92788793      -5.73727927
C        7.09591404       4.48676168      -4.69567135
N        8.92324989       4.21566847      -6.33613857
S        8.83289429       3.98681370      -8.02434561
O        7.82522372       2.97437567      -8.25316744
O        8.82775294       5.27589852      -8.68126932
C       10.36624270       3.22988765      -8.50816497
C       11.54824218       2.97514740      -7.83526387
C       12.50646238       2.31356013      -8.66256632
C       12.01216315       2.10933928      -9.92614056
Br      12.97940058       1.27157476     -11.29370428
S       10.43769255       2.69229624     -10.13462868
H        2.19296740       0.22628710      -3.22927369
H        3.62016295       1.66111096      -4.64452462
H        2.95360323       4.97208632      -1.96065025
H        1.54991452       3.54299668      -0.55114461
H        5.22830215       5.12837874      -2.71237717
H        4.25576918       6.12284380      -3.87240688
H        7.67547142       6.89860110      -6.81721969
H        7.08841084       3.56664905      -4.12984229
H        9.08803615       3.31093459      -5.89547596
H       11.71725836       3.24862167      -6.80074227
H       13.49639047       2.01359484      -8.34069439
C       -1.79136369      -1.79136369      -1.79136369
C       -2.42507236      -1.24156890      -2.90192019
C       -3.23203515      -2.05232065      -3.70036303
C       -3.41723790      -3.40207760      -3.38621436
C       -2.76297097      -3.95174511      -2.28487636
C       -1.95194477      -3.14222957      -1.48264129
O       -4.23380101      -4.07659319      -4.24294297
C       -4.83645480      -5.27821903      -3.76298698
N       -6.06414006      -5.46750029      -4.52942714
N       -6.23501519      -6.54659776      -5.32140197
C       -7.33419107      -6.24321245      -6.02327632
C       -7.89765679      -5.00582901      -5.63386816
C       -7.10016786      -4.57350998      -4.60466924
N       -8.99374868      -4.31154848      -6.16975976
S       -8.97229539      -4.02101339      -7.85074483
O       -8.00934424      -2.96557913      -8.07784346
O       -8.94599970      -5.28544933      -8.55347175
C      -10.54747708      -3.30346099      -8.25335724
C      -11.71260662      -3.11503236      -7.53101448
C      -12.72244253      -2.46003044      -8.30011586
C      -12.28139524      -2.19431106      -9.57193669
Br     -13.32583093      -1.34488888     -10.87395982
S      -10.69613858      -2.71255413      -9.85592476
H       -2.29870423      -0.19271445      -3.15710950
H       -3.72520410      -1.62794414      -4.57265028
H       -2.84762694      -5.00408625      -2.03462662
H       -1.44461201      -3.57523078      -0.62421303
H       -5.14112277      -5.21600189      -2.71193340
H       -4.17702344      -6.13383361      -3.94016281
H       -7.67156433      -6.92942374      -6.79030414
H       -7.10428525      -3.67395961      -4.00665732
H       -9.17391456      -3.42921256      -5.69131958
H      -11.83462380      -3.43023169      -6.50176680
H      -13.70996286      -2.20730479      -7.93341205
C       -1.79136369       1.79136369       1.79136369
C       -1.71320441       3.17644241       1.67891463
C       -2.51891201       3.97536930       2.49043752
C       -3.38935384       3.39696747       3.41920854
C       -3.47845233       2.00896068       3.51217944
C       -2.67308514       1.20454328       2.69918721
O       -4.11185128       4.28997123       4.15151466
C       -4.64962689       3.83503463       5.39299929
N       -4.80818238       5.01377018       6.23911492
N       -6.02416210       5.40271461       6.67613822
C       -5.79333624       6.61748609       7.18985752
C       -4.42536505       6.97291038       7.13907853
C       -3.80477950       5.87549106       6.59807651
N       -3.79690000       8.17385398       7.50430294
S       -4.41916538       9.60659767       6.81829056
O       -3.98316923       9.63048326       5.43911435
O       -5.80047773       9.76649964       7.21794341
C       -3.55586080      10.94957924       7.59885527
C       -2.67735545      11.01533656       8.66596144
C       -2.22515182      12.34825366       8.90918334
C       -2.79089337      13.23182003       8.02492959
Br      -2.44073933      15.07164778       8.03229252
S       -3.84384639      12.49841832       6.92235277
H       -1.03695937       3.64368429       0.96788451
H       -2.46494934       5.05865044       2.40219874
H       -4.17295163       1.52353313       4.18985505
H       -2.74539314       0.12258442       2.77607825
H       -3.97377194       3.16210642       5.93317970
H       -5.63277146       3.37877333       5.23947507
H       -6.62869701       7.19247178       7.57012343
H       -2.77704629       5.67539834       6.33245755
H       -2.78879460       8.15365450       7.35199760
H       -2.37309227      10.15047813       9.24305190
H       -1.52975325      12.63054470       9.69038174
C        1.79136369      -1.79136369       1.79136369
C        1.46884222      -3.13404473       1.96567450
C        2.27678638      -3.93224934       2.77568311
C        3.39394506      -3.39186869       3.41971610
C        3.72372044      -2.05165476       3.22421725
C        2.91671051      -1.24844474       2.41166038
O        4.09066249      -4.27768980       4.18498487
C        4.92705047      -3.74099491       5.20961543
N        5.05411900      -4.77460940       6.23233909
N        6.25237258      -5.31718847       6.53345387
C        5.93208467      -6.36363717       7.30495801
C        4.54131496      -6.44861898       7.54742002
C        4.01371517      -5.35390456       6.91072734
N        3.80968172      -7.42819023       8.23718497
S        4.04491767      -9.04686407       7.75227187
O        3.35010824      -9.20887140       6.49378720
O        5.43299155      -9.40625327       7.94567596
C        3.14415035     -10.05051225       8.90963272
C        2.49207075      -9.76929638      10.09728633
C        1.88566895     -10.93073891      10.66618097
C        2.11673662     -12.03940407       9.89150231
Br       1.48066180     -13.74937054      10.31464729
S        3.03906416     -11.71467693       8.51087638
H        0.60007434      -3.56945132       1.47900252
H        2.03141426      -4.98381718       2.91056708
H        4.60658695      -1.60763968       3.67211317
H        3.17739662      -0.20358016       2.26307903
H        4.48810001      -2.87045445       5.71050360
H        5.92210576      -3.51654468       4.81236942
H        6.72089907      -7.02107780       7.64931534
H        3.00032208      -5.00289296       6.78168714
H        2.80817331      -7.23660107       8.24967232
H        2.45091037      -8.77966000      10.53605193
H        1.31971131     -10.94114134      11.58982705
C       -0.00445707       0.01189536      -1.78238275
H       -0.66409135       0.67374010      -2.43557963
H        0.65740317      -0.63156657      -2.45157240
C       -0.90989263      -0.90692880      -0.91072765
C        0.90977584       0.90977584      -0.90977584
C       -0.00465871       1.77757030       0.00794375
H       -0.66225468       2.44313916      -0.64384735
H        0.64322798       2.43503045       0.67728295
C       -1.78241447       0.00034974      -0.00472694
H       -2.45427497      -0.65498947       0.64260836
H       -2.43311707       0.67328779      -0.65473579
C       -0.91132561       0.90220522       0.91563759
C       -0.01476271      -0.02253852       1.78660255
H       -0.67934791      -0.69751639       2.42135241
H        0.63392994       0.61504881       2.47327442
C        0.01484550      -1.77751727      -0.01636693
H        0.67870853      -2.42144646      -0.68295456
H       -0.62264859      -2.45592969       0.64226336
C        1.78714474       0.01002794       0.00389507
H        2.44202412       0.67113390       0.66197326
H        2.45385902      -0.65136977      -0.64189061
C        0.91606151      -0.90478549       0.90901405
