189
Properties=species:S:1:pos:R:3 pbc="F F F"
C        0.00000000       0.00000000       0.00000000
C        7.04010428       5.47338284       3.48045631
C        7.25632270       5.82343276       2.20597264
C        6.84847308       5.02897064       1.03935194
C        6.84196935       3.63006963       1.04430681
C        6.47005666       2.91176572      -0.09845823
C        6.09168431       3.57480105      -1.27606096
C        6.14500578       4.97594308      -1.28969568
C        6.51389452       5.69223325      -0.14540597
C        5.71793372       2.75608209      -2.49545617
N        4.74630335       3.40624734      -3.37506267
N        5.23726796       4.14212973      -4.39774016
C        4.16876469       4.55136840      -5.09226497
C        2.98647702       4.05631796      -4.48779621
C        3.37054305       3.29321852      -3.39499491
C        2.52845192       2.48159342      -2.50742684
C        2.73816023       2.40825068      -1.12509756
C        1.93186183       1.59805731      -0.31633779
C        0.88125319       0.88125319      -0.88125319
C        0.62698210       0.97067411      -2.24547829
C        1.44953964       1.76428182      -3.05161601
C        4.31542215       5.36431787      -6.30646455
C        3.20590354       5.72456501      -7.08620729
C        3.36699790       6.47987977      -8.25316837
C        4.63935557       6.88294866      -8.65055561
C        5.75470214       6.53982329      -7.89004157
C        5.59014357       5.78541517      -6.72634131
H        7.36258197       6.12239562       4.28883172
H        6.52927850       4.55744571       3.75693578
H        7.74783678       6.77057765       1.99369666
H        7.14107607       3.07988461       1.93314939
H        6.48260256       1.82403478      -0.05799325
H        5.90254263       5.53657227      -2.19143992
H        6.53214734       6.77921328      -0.19310591
H        5.29739817       1.78581242      -2.21064562
H        6.61976614       2.56062618      -3.08844413
H        1.96907835       4.20711024      -4.81914411
H        3.51539259       2.99330703      -0.64398012
H        2.12831981       1.54496835       0.75151752
H       -0.20172354       0.42921846      -2.69411210
H        1.23967940       1.81022193      -4.11850928
H        2.20126320       5.42069020      -6.80646908
H        2.49433928       6.74394922      -8.84530604
H        6.75185194       6.84699222      -8.19238093
H        6.47114293       5.51964508      -6.14450443
C        4.80421767       7.65418325      -9.85538660
C        4.94228968       8.30009221     -10.86443255
Br       5.16554045       9.34447238     -12.49597450
C       -7.81044013       3.25420754      -4.47679822
C       -7.92689056       2.00902588      -4.95591815
C       -6.82149608       1.04727512      -5.06387082
C       -5.50930330       1.43571278      -5.35414165
C       -4.49027867       0.48300546      -5.47300740
C       -4.75705342      -0.88407791      -5.30141498
C       -6.08239069      -1.27130554      -5.05694831
C       -7.09901934      -0.31725798      -4.93525642
C       -3.62707514      -1.88136795      -5.46102890
N       -3.78185866      -3.09180386      -4.65395084
N       -4.38926535      -4.14868055      -5.23919194
C       -4.33090074      -5.13988457      -4.34161275
C       -3.66991261      -4.68852224      -3.17215635
C       -3.29284786      -3.37217572      -3.39373289
C       -2.48899735      -2.49583897      -2.53263586
C       -2.77218609      -1.13509100      -2.36423137
C       -1.96276005      -0.32541264      -1.55808423
C       -0.88125319      -0.88125319      -0.88125319
C       -0.60472073      -2.23894010      -0.99947368
C       -1.40363276      -3.03813309      -1.82367162
C       -4.87499253      -6.47081119      -4.64040086
C       -4.74126838      -7.53714618      -3.73826128
C       -5.24535715      -8.80484523      -4.04984365
C       -5.88898732      -9.01757429      -5.26629824
C       -6.03627516      -7.97273998      -6.17555187
C       -5.53138849      -6.70908485      -5.86142671
H       -8.67972428       3.90198509      -4.41840669
H       -6.86994962       3.65688018      -4.11671898
H       -8.90498534       1.65384044      -5.27357287
H       -5.26504179       2.48414340      -5.50691290
H       -3.48260780       0.82310959      -5.70513238
H       -6.34929399      -2.32265145      -4.95860938
H       -8.11292658      -0.65738309      -4.73415686
H       -2.66228223      -1.43670822      -5.19486576
H       -3.56594232      -2.19153161      -6.51136253
H       -3.46062423      -5.25721332      -2.27749516
H       -3.63707361      -0.67971801      -2.83588811
H       -2.19435771       0.73212210      -1.45953502
H        0.22655072      -2.68682032      -0.46133743
H       -1.16184766      -4.09564999      -1.91091296
H       -4.23930605      -7.40504525      -2.78407118
H       -5.12661346      -9.61840881      -3.33857227
H       -6.53445295      -8.12853053      -7.12824162
H       -5.64864205      -5.90293472      -6.58371566
C       -6.40097825     -10.32435751      -5.58845176
C       -6.82977065     -11.41878847      -5.85825533
Br      -7.52309169     -13.18839075      -6.29450489
C        3.38632680       7.44400720       4.97535041
C        2.12023056       7.61846423       5.37554915
C        0.93944411       7.12056553       4.65697035
C        0.88106265       7.04762614       3.26116867
C       -0.27416841       6.59030138       2.61581083
C       -1.40101690       6.19078437       3.35074505
C       -1.35342594       6.31015174       4.74706686
C       -0.19662100       6.76443251       5.39048023
C       -2.63719187       5.72335377       2.60892634
N       -3.43900092       4.74481016       3.34380229
N       -4.44938183       5.22326073       4.10449530
C       -5.07285381       4.14499083       4.59455342
C       -4.43586732       2.96917385       4.12555003
C       -3.39845925       3.36574526       3.29455197
C       -2.50960410       2.52717495       2.48069313
C       -1.14361002       2.79581359       2.33208486
C       -0.33503278       1.98944152       1.52178263
C       -0.88125319       0.88125319       0.88125319
C       -2.22632707       0.56973848       1.04706896
C       -3.03381738       1.39166313       1.83995697
C       -6.25442434       4.27484333       5.45693691
C       -6.96320279       3.14943562       5.90403744
C       -8.10094735       3.29309548       6.70600320
C       -8.53977946       4.56382275       7.06925763
C       -7.84968684       5.69498712       6.63989304
C       -6.71498965       5.54776545       5.83914494
H        4.20709898       7.83349052       5.56975433
H        3.64488710       6.90321245       4.07146308
H        1.92807433       8.14439729       6.30839481
H        1.72868997       7.36029288       2.65620837
H       -0.28386985       6.55281672       1.52794402
H       -2.21615156       6.05391640       5.36048687
H       -0.19564091       6.83228405       6.47654157
H       -2.37709364       5.27044241       1.64632016
H       -3.28076620       6.58693587       2.40113439
H       -4.71114394       1.94610009       4.33808867
H       -0.67396884       3.62112827       2.85758262
H        0.71872353       2.23151865       1.40897551
H       -2.65911847      -0.30338185       0.56587041
H       -4.08630015       1.13591588       1.94619458
H       -6.65001186       2.14521999       5.63319063
H       -8.63819282       2.40798312       7.03741860
H       -8.18492294       6.69085738       6.91544477
H       -6.18849750       6.44065079       5.50614414
C       -9.71476704       4.71027827       7.88874221
C      -10.69881913       4.83293477       8.57506054
Br     -12.28994814       5.03125995       9.68477925
C       -3.27898236      -4.56070025       7.75131292
C       -2.03110110      -5.03125983       7.87362410
C       -1.06021999      -5.12350350       6.77480827
C       -1.43649504      -5.40669322       5.45753399
C       -0.47522709      -5.51057618       4.44493152
C        0.88845107      -5.33068464       4.72341061
C        1.26376588      -5.09340580       6.05347287
C        0.30115435      -4.98668874       7.06369065
C        1.89544922      -5.47413029       3.59989247
N        3.09849178      -4.65912116       3.77000042
N        4.15517358      -5.24096307       4.38100120
C        5.13991957      -4.33549175       4.33698674
C        4.68466900      -3.16447875       3.68144345
C        3.37294021      -3.39312692       3.29268934
C        2.49617124      -2.53258158       2.48871935
C        1.13207551      -2.37664036       2.76279259
C        0.32242216      -1.57049495       1.95333982
C        0.88125319      -0.88125319       0.88125319
C        2.24185512      -0.98708720       0.61419219
C        3.04124086      -1.81128156       1.41291506
C        6.46893081      -4.62834120       4.88893257
C        7.52933881      -3.71716688       4.77017016
C        8.79552630      -4.02298325       5.28153649
C        9.01264696      -5.24266478       5.91754810
C        7.97369002      -6.16089348       6.04998350
C        6.71153287      -5.85249780       5.53786938
H       -3.93374426      -4.51383958       8.61605056
H       -3.67726143      -4.19651866       6.81053119
H       -1.68091440      -5.35366527       8.85196689
H       -2.48185263      -5.56552553       5.20413838
H       -0.80591852      -5.73757916       3.43296995
H        2.31228224      -4.98915322       6.32911937
H        0.63205609      -4.79075677       8.08165368
H        1.45608528      -5.20399179       2.63377915
H        2.21406438      -6.52159077       3.53318131
H        5.24809048      -2.26397128       3.48327095
H        0.67378099      -2.85830824       3.62059050
H       -0.73755500      -1.48171773       2.17760791
H        2.69189619      -0.43925660      -0.20954577
H        4.10119104      -1.88867403       1.17854553
H        7.39376912      -2.76020467       4.27444869
H        9.60451916      -3.30469265       5.17438272
H        8.13296515      -7.11614735       6.54211259
H        5.91004830      -6.58173787       5.64350626
C       10.31793718      -5.55881624       6.43703410
C       11.41111774      -5.82359308       6.87210362
Br      13.17869824      -6.25171485       7.57557424
