181
Properties=species:S:1:pos:R:3 pbc="F F F"
C        0.00000000       0.00000000       0.00000000
C        7.04010428       5.47338284       3.48045631
C        7.25632270       5.82343276       2.20597264
C        6.84847308       5.02897064       1.03935194
C        6.84196935       3.63006963       1.04430681
C        6.47005666       2.91176572      -0.09845823
C        6.09168431       3.57480105      -1.27606096
C        6.14500578       4.97594308      -1.28969568
C        6.51389452       5.69223325      -0.14540597
C        5.71793372       2.75608209      -2.49545617
N        4.74630335       3.40624734      -3.37506267
N        5.23726796       4.14212973      -4.39774016
C        4.16876469       4.55136840      -5.09226497
C        2.98647702       4.05631796      -4.48779621
C        3.37054305       3.29321852      -3.39499491
C        2.52845192       2.48159342      -2.50742684
C        2.73816023       2.40825068      -1.12509756
C        1.93186183       1.59805731      -0.31633779
C        0.88125319       0.88125319      -0.88125319
C        0.62698210       0.97067411      -2.24547829
C        1.44953964       1.76428182      -3.05161601
C        4.31542215       5.36431787      -6.30646455
C        3.20590354       5.72456501      -7.08620729
C        3.36699790       6.47987977      -8.25316837
C        4.63935557       6.88294866      -8.65055561
Br       4.85568993       7.89497346     -10.23155167
C        5.75470214       6.53982329      -7.89004157
C        5.59014357       5.78541517      -6.72634131
H        7.36258197       6.12239562       4.28883172
H        6.52927850       4.55744571       3.75693578
H        7.74783678       6.77057765       1.99369666
H        7.14107607       3.07988461       1.93314939
H        6.48260256       1.82403478      -0.05799325
H        5.90254263       5.53657227      -2.19143992
H        6.53214734       6.77921328      -0.19310591
H        5.29739817       1.78581242      -2.21064562
H        6.61976614       2.56062618      -3.08844413
H        1.96907835       4.20711024      -4.81914411
H        3.51539259       2.99330703      -0.64398012
H        2.12831981       1.54496835       0.75151752
H       -0.20172354       0.42921846      -2.69411210
H        1.23967940       1.81022193      -4.11850928
H        2.20126320       5.42069020      -6.80646908
H        2.49433928       6.74394922      -8.84530604
H        6.75185194       6.84699222      -8.19238093
H        6.47114293       5.51964508      -6.14450443
C       -7.67689576       3.30817660      -4.66431165
C       -7.80658839       2.05710191      -5.12429635
C       -6.71618675       1.07514112      -5.19704615
C       -5.39281815       1.43636505      -5.47127907
C       -4.38842230       0.46471413      -5.55657245
C       -4.68145725      -0.89453339      -5.36655568
C       -6.01717354      -1.25511152      -5.13835949
C       -7.01919876      -0.28211268      -5.05022230
C       -3.56621738      -1.91332360      -5.48993100
N       -3.75532138      -3.10695908      -4.66533290
N       -4.37080982      -4.16332566      -5.24300238
C       -4.34459353      -5.13983430      -4.32797024
C       -3.69577305      -4.67969154      -3.15512661
C       -3.29250735      -3.37388287      -3.39236625
C       -2.48837893      -2.49658536      -2.53250789
C       -2.75098939      -1.12856840      -2.39195068
C       -1.94150373      -0.31894634      -1.58580685
C       -0.88125319      -0.88125319      -0.88125319
C       -0.62609071      -2.24523713      -0.97180667
C       -1.42458123      -3.04486368      -1.79599256
C       -4.90631468      -6.46632660      -4.61356330
C       -4.80612596      -7.51913684      -3.69141304
C       -5.32655565      -8.78331372      -3.99017667
C       -5.95313845      -9.00599085      -5.21373054
Br      -6.64706553     -10.71619645      -5.61895308
C       -6.06713570      -7.97456840      -6.14286291
C       -5.54602056      -6.71440412      -5.84147537
H       -8.53580413       3.97142425      -4.63176599
H       -6.73584268       3.70105122      -4.29499697
H       -8.78513578       1.71306230      -5.45264429
H       -5.12807187       2.47775432      -5.63749374
H       -3.37129675       0.78374988      -5.77708372
H       -6.30368733      -2.29996696      -5.02690054
H       -8.04203616      -0.60159631      -4.86083407
H       -2.59856547      -1.48049435      -5.21479640
H       -3.49271274      -2.24244058      -6.53368314
H       -3.51138170      -5.23640405      -2.24754696
H       -3.59986539      -0.66683367      -2.88598066
H       -2.15656012       0.74387730      -1.50908781
H        0.18818662      -2.69777443      -0.41201922
H       -1.19953070      -4.10764732      -1.86123259
H       -4.31813098      -7.37917361      -2.73111789
H       -5.23379022      -9.58644631      -3.26335801
H       -6.55177879      -8.13825247      -7.10119383
H       -5.63723768      -5.91889690      -6.57915786
C        1.16695909       9.47337314       0.72661676
C        0.11800496       9.43348701       1.55830078
C       -0.89017410       8.36508244       1.58283524
C       -1.30594853       7.69361397       0.42816967
C       -2.28856703       6.69841990       0.49329369
C       -2.87919149       6.34658159       1.71677324
C       -2.49224434       7.05512560       2.86327460
C       -1.50753354       8.04732452       2.79667568
C       -3.95452344       5.27878013       1.73616842
N       -4.02003362       4.52138917       2.98619057
N       -4.87567506       4.96846960       3.93299319
C       -4.81508467       4.07212921       4.92518417
C       -3.90177896       3.04310588       4.58570637
C       -3.41409844       3.32624814       3.31840990
C       -2.52527158       2.51244662       2.47975399
C       -1.50693306       3.06843661       1.69613880
C       -0.69978140       2.26102362       0.88545191
C       -0.88125319       0.88125319       0.88125319
C       -1.85852538       0.30164029       1.68296883
C       -2.67628769       1.11534669       2.47380310
C       -5.64113959       4.21398436       6.13108063
C       -5.64610365       3.23465471       7.13591748
C       -6.45749690       3.37519981       8.26734932
C       -7.27073009       4.49725800       8.40487176
Br      -8.37249808       4.68070710       9.92900987
C       -7.27923650       5.48375357       7.42157693
C       -6.46860647       5.33979681       6.29349677
H        1.87630587      10.29360442       0.77884732
H        1.36193201       8.69835920      -0.00663876
H       -0.00534007      10.22687207       2.29250563
H       -0.88163801       7.94659558      -0.54042231
H       -2.59004804       6.20190674      -0.42732419
H       -2.95107459       6.84996538       3.82951486
H       -1.22694745       8.56670456       3.71081453
H       -3.81219351       4.55485659       0.92680611
H       -4.93329284       5.75033262       1.58521100
H       -3.64405407       2.17540313       5.17587551
H       -1.30397590       4.13442650       1.71427733
H        0.07152430       2.72066299       0.27263195
H       -1.99693186      -0.77619218       1.70086734
H       -3.44256510       0.64152800       3.08431751
H       -5.02771686       2.34526328       7.05544233
H       -6.44978053       2.60213366       9.03168035
H       -7.91170134       6.36170282       7.51782093
H       -6.48931695       6.11581900       5.53015649
C       -3.32995198      -4.74547049       7.61751231
C       -2.07648535      -5.19716905       7.75309912
C       -1.08599835      -5.25457546       6.66951467
C       -1.43540823      -5.52162690       5.34151349
C       -0.45577148      -5.59229104       4.34376106
C        0.89982960      -5.39443945       4.64827726
C        1.24884463      -5.17351870       5.98828122
C        0.26785640      -5.10000323       6.98367411
C        1.92770318      -5.50201256       3.53975624
N        3.11375402      -4.67006349       3.74379586
N        4.16981554      -5.24448440       4.36283791
C        5.13966727      -4.32210777       4.35062302
C        4.67562182      -3.14790171       3.70706768
C        3.37462015      -3.39176080       3.29237553
C        2.49691269      -2.53244497       2.48811452
C        1.12599037      -2.40393259       2.74158551
C        0.31639314      -1.59778958       1.93207420
C        0.88125319      -0.88125319       0.88125319
C        2.24771638      -0.95984963       0.63556849
C        3.04753373      -1.78402575       1.43387800
C        6.46406665      -4.60207724       4.92006069
C        7.51070833      -3.67147084       4.83449667
C        8.77319797      -3.96476290       5.36208517
C        9.00033144      -5.19126211       5.98126630
Br      10.70833692      -5.58900735       6.68487078
C        7.97502642      -6.12879510       6.08074548
C        6.71653472      -5.83284460       5.55252073
H       -3.99973785      -4.72419663       8.47168709
H       -3.71860984      -4.37208273       6.67631554
H       -1.73724058      -5.53023089       8.73172746
H       -2.47355384      -5.69354422       5.06782091
H       -0.76565249      -5.80758746       3.32269562
H        2.29070245      -5.05649023       6.28336214
H        0.57837432      -4.91586728       8.01022494
H        1.49998856      -5.22289674       2.57097092
H        2.26509693      -6.54273495       3.46100457
H        5.22692199      -2.23489745       3.53351327
H        0.66169168      -2.90764524       3.58334280
H       -0.74852777      -1.53050844       2.13978997
H        2.70207460      -0.39070792      -0.17117550
H        4.11240307      -1.83975457       1.21625298
H        7.36721786      -2.70863549       4.35256913
H        9.57157184      -3.23137344       5.28064926
H        8.14224655      -7.08946654       6.55951200
H        5.92587792      -6.57702958       5.63238494
