153
Properties=species:S:1:pos:R:3 pbc="F F F"
C        0.00000000       0.00000000       0.00000000
C        0.87775726       0.87775726      -0.87775726
C        0.49938585       2.17782594      -1.18052290
C        1.32837195       2.95016587      -1.99263699
C        2.51007714       2.39493832      -2.47814628
N        2.90018780       1.13205609      -2.18929460
C        2.07198793       0.40216120      -1.39682580
N        3.30383016       3.19915320      -3.29916554
C        4.47478153       2.90607217      -3.94543483
S        5.12372399       4.15257605      -4.85598919
N        4.98303230       1.63412005      -3.77304191
C        6.08351263       1.04054960      -4.38078702
O        6.70919109       1.50527757      -5.32930861
C        6.48980902      -0.30434942      -3.88218392
C        7.14346563      -1.15459646      -4.78285316
C        7.65560061      -2.38211621      -4.36081924
C        7.53183329      -2.79081369      -3.02420273
C        6.86920313      -1.93602320      -2.12616138
C        6.34323006      -0.70417754      -2.55029406
C        8.24587283      -4.05838192      -2.60416792
N        7.67760782      -4.72469615      -1.43838741
N        8.20283677      -4.50105040      -0.21027786
C        7.52919384      -5.34280394       0.58091520
C        6.59053507      -6.09104480      -0.13833197
Br       5.45473022      -7.38597219       0.57574927
C        6.70109470      -5.68408767      -1.44106726
H       -0.42772467       2.59706368      -0.79885450
H        1.03956785       3.96702355      -2.23948270
H        2.41142561      -0.60908268      -1.18904184
H        2.97681184       4.14022619      -3.48183518
H        4.44000209       1.06642489      -3.12844444
H        7.28833819      -0.84471404      -5.81704190
H        8.19010502      -2.99764122      -5.08277017
H        6.79155731      -2.19720909      -1.07064201
H        5.88281231      -0.05224664      -1.81247571
H        9.29503877      -3.83343150      -2.37955864
H        8.22376531      -4.79478539      -3.41721970
H        7.76210595      -5.37061186       1.63735185
H        6.19686213      -5.98813069      -2.34704608
C       -0.87775726      -0.87775726      -0.87775726
C       -0.51684462      -1.15177136      -2.18911872
C       -1.35011838      -1.95682441      -2.96423202
C       -2.52067664      -2.46069076      -2.40179435
N       -2.88709259      -2.21086013      -1.12358577
C       -2.05659594      -1.42217373      -0.39220527
N       -3.33289546      -3.25130006      -3.21795338
C       -4.54399468      -3.83145286      -2.95084100
S       -5.21439316      -4.70667288      -4.21122318
N       -5.06705231      -3.63467562      -1.68846633
C       -6.30519733      -4.01571099      -1.18394093
O       -7.23872515      -4.45725840      -1.84779372
C       -6.53839079      -3.80217821       0.27292549
C       -7.86004280      -3.60277558       0.69109605
C       -8.17212048      -3.51020114       2.04801797
C       -7.17045116      -3.61933604       3.02456487
C       -5.84484321      -3.81310344       2.59860534
C       -5.52594673      -3.89621711       1.23281726
C       -7.60080602      -3.66648041       4.47562760
N       -6.58678315      -3.23478531       5.43026938
N       -5.80833235      -4.15360886       6.04987697
C       -5.09360576      -3.43007341       6.91820446
C       -5.41734461      -2.07037196       6.84989433
Br      -4.66766524      -0.72040943       7.89506590
C       -6.38572930      -1.96041905       5.88807406
H        0.39700062      -0.74825735      -2.61693678
H       -1.07951409      -2.17369820      -3.99286180
H       -2.38270651      -1.23633719       0.62765893
H       -3.01514173      -3.41871253      -4.16501895
H       -4.45075607      -3.11073451      -1.07338084
H       -8.66238691      -3.55422341      -0.04405574
H       -9.21628769      -3.39282635       2.33388008
H       -5.04491268      -3.94706096       3.32698341
H       -4.49593723      -4.09641700       0.94931285
H       -7.89239146      -4.68947404       4.74069958
H       -8.46838410      -3.01437524       4.63655972
H       -4.38003144      -3.93233476       7.55822396
H       -6.94331886      -1.11776208       5.50530342
C       -0.87775726       0.87775726       0.87775726
C       -0.43540300       1.29873799       2.12359371
C       -1.27095204       2.09872634       2.90149643
C       -2.52511847       2.45035583       2.40768744
N       -2.97237220       2.05592629       1.19323999
C       -2.13742773       1.27591887       0.45762834
N       -3.33504805       3.24148718       3.22561367
C       -4.61181089       3.69225861       3.02221903
S       -5.25173525       4.61947486       4.26107912
N       -5.21801368       3.33888899       1.83329159
C       -6.52328677       3.56825783       1.41330465
O       -7.43458395       3.98906866       2.12012466
C       -6.85648445       3.20471232       0.00644674
C       -8.18475973       2.85895230      -0.27198971
C       -8.59890931       2.61795678      -1.58256243
C       -7.69598116       2.72092220      -2.65168103
C       -6.36262073       3.06212588      -2.36540530
C       -5.94010808       3.29510451      -1.04586600
C       -8.24802007       2.60020066      -4.05656190
N       -7.28191810       2.16946596      -5.06008498
N       -6.64432288       3.08979692      -5.82205557
C       -5.94157099       2.35238575      -6.68848202
C       -6.13374259       0.98230434      -6.47822468
Br      -5.35414876      -0.38991440      -7.47122560
C       -7.00478980       0.87995848      -5.42667399
H        0.54369830       1.01312802       2.49876378
H       -0.93654591       2.42982661       3.87970157
H       -2.52900624       0.97179921      -0.50942068
H       -2.95614475       3.52001981       4.12270865
H       -4.61000006       2.81435524       1.21051613
H       -8.91545393       2.81077370       0.53443844
H       -9.64825299       2.38868775      -1.76170677
H       -5.64151086       3.19547430      -3.17199494
H       -4.91252873       3.60517713      -0.87466448
H       -8.65229196       3.56710127      -4.37822732
H       -9.06318926       1.86629528      -4.08328492
H       -5.33224389       2.85207498      -7.43017664
H       -7.44981438       0.03208444      -4.92612129
C        0.87775726      -0.87775726       0.87775726
C        0.42708998      -2.11462109       1.31602363
C        1.25902576      -2.88862385       2.12352521
C        2.51626961      -2.39813646       2.46875567
N        2.97690059      -1.19812769       2.04651021
C        2.14411946      -0.46485104       1.26200444
N        3.31149073      -3.20018715       3.29047101
C        4.55129084      -2.95689692       3.81810077
S        5.17608735      -4.17942881       4.77677306
N        5.13970388      -1.74876817       3.50172222
C        6.32938340      -1.20401571       3.97145013
O        6.99434683      -1.64495622       4.90447422
C        6.79492019       0.06000243       3.33272575
C        7.58481073       0.91954260       4.10645419
C        8.15285912       2.06400517       3.54544970
C        7.94991356       2.37759995       2.19290872
C        7.15097701       1.51449565       1.42285995
C        6.56902208       0.36704983       1.98737433
C        8.72181029       3.54517805       1.61502659
N        8.11128326       4.16491254       0.44492835
N        8.51356585       3.80449457      -0.79700705
C        7.84305258       4.63612437      -1.60145350
C        7.02793436       5.51308185      -0.87703027
Br       5.93951540       6.83941212      -1.60709452
C        7.21506732       5.19971167       0.44271863
H       -0.55808940      -2.48323080       1.04305210
H        0.91446531      -3.85586895       2.47573982
H        2.54181089       0.49560002       0.94517391
H        2.92944126      -4.09388633       3.57554562
H        4.59010490      -1.18904236       2.85572416
H        7.79111724       0.67911052       5.14865934
H        8.79142082       2.68652564       4.17033879
H        7.00594109       1.69930184       0.35835098
H        5.99994709      -0.29903680       1.34405748
H        9.72818945       3.21696105       1.32993751
H        8.82423896       4.34119510       2.36315576
H        7.98854867       4.56310317      -2.67130327
H        6.81297904       5.61348733       1.35628581
