161
Properties=species:S:1:pos:R:3 pbc="F F F"
C        0.00000000       0.00000000       0.00000000
C        0.87775726       0.87775726      -0.87775726
C        0.49938585       2.17782594      -1.18052290
C        1.32837195       2.95016587      -1.99263699
C        2.51007714       2.39493832      -2.47814628
N        2.90018780       1.13205609      -2.18929460
C        2.07198793       0.40216120      -1.39682580
N        3.30383016       3.19915320      -3.29916554
C        4.47478153       2.90607217      -3.94543483
S        5.12372399       4.15257605      -4.85598919
N        4.98303230       1.63412005      -3.77304191
C        6.08351263       1.04054960      -4.38078702
O        6.70919109       1.50527757      -5.32930861
C        6.48980902      -0.30434942      -3.88218392
C        7.14346563      -1.15459646      -4.78285316
C        7.65560061      -2.38211621      -4.36081924
C        7.53183329      -2.79081369      -3.02420273
C        6.86920313      -1.93602320      -2.12616138
C        6.34323006      -0.70417754      -2.55029406
C        8.24587283      -4.05838192      -2.60416792
N        7.67760782      -4.72469615      -1.43838741
N        8.20283677      -4.50105040      -0.21027786
C        7.52919384      -5.34280394       0.58091520
C        6.59053507      -6.09104480      -0.13833197
C        6.70109470      -5.68408767      -1.44106726
H       -0.42772467       2.59706368      -0.79885450
H        1.03956785       3.96702355      -2.23948270
H        2.41142561      -0.60908268      -1.18904184
H        2.97681184       4.14022619      -3.48183518
H        4.44000209       1.06642489      -3.12844444
H        7.28833819      -0.84471404      -5.81704190
H        8.19010502      -2.99764122      -5.08277017
H        6.79155731      -2.19720909      -1.07064201
H        5.88281231      -0.05224664      -1.81247571
H        9.29503877      -3.83343150      -2.37955864
H        8.22376531      -4.79478539      -3.41721970
H        7.76210595      -5.37061186       1.63735185
H        6.19686213      -5.98813069      -2.34704608
C        5.71338025      -7.09108614       0.41313584
C        4.97876309      -7.92862076       0.87499012
Br       3.79094926      -9.28284340       1.62176943
C       -0.87775726      -0.87775726      -0.87775726
C       -0.42821010      -1.31366192      -2.11586267
C       -1.26395076      -2.11314114      -2.89408291
C       -2.52548820      -2.44931886      -2.40835468
N       -2.97989393      -2.04019894      -1.20144562
C       -2.14456298      -1.26106931      -0.46534265
N       -3.33518046      -3.24052269      -3.22644575
C       -4.61763670      -3.67821465      -3.03043719
S       -5.25484043      -4.61072709      -4.26672171
N       -5.23111906      -3.30897898      -1.85009623
C       -6.54202367      -3.52311132      -1.43971426
O       -7.45076506      -3.94214470      -2.15086751
C       -6.88435012      -3.14416829      -0.03912510
C       -8.21190196      -2.78427126       0.22445090
C       -8.63541475      -2.52801112       1.52912222
C       -7.74288191      -2.62942212       2.60708169
C       -6.41013585      -2.98487754       2.33567208
C       -5.97811054      -3.23327464       1.02203859
C       -8.30617141      -2.49137539       4.00588796
N       -7.34515296      -2.06026653       5.01412042
N       -6.72248714      -2.97937124       5.78979415
C       -6.02086813      -2.24050932       6.65590274
C       -6.19900747      -0.87071063       6.43189586
C       -7.05982200      -0.77004376       5.37179147
H        0.55665317      -1.04002390      -2.48482277
H       -0.92390084      -2.45584560      -3.86632765
H       -2.54192221      -0.94493919       0.49547663
H       -2.95088396      -3.53033502      -4.11765423
H       -4.62397668      -2.78430761      -1.22658713
H       -8.93501303      -2.73682607      -0.58882696
H       -9.68421728      -2.28793286       1.69691618
H       -5.69736612      -3.11740009       3.14977598
H       -4.95185810      -3.55388808       0.86270480
H       -8.72182923      -3.45178557       4.33244889
H       -9.11499488      -1.75011495       4.01891022
H       -5.42255439      -2.73893641       7.40734856
H       -7.49287666       0.07723611       4.85986302
C       -5.59433234       0.19044872       7.19472534
C       -5.08791691       1.07916968       7.83359502
Br      -4.26908600       2.51615630       8.86659327
C       -0.87775726       0.87775726       0.87775726
C       -0.65549309       0.95726541       2.24497620
C       -1.48462593       1.76916963       3.01737926
C       -2.51246784       2.47472720       2.39596669
N       -2.74161979       2.41607139       1.06384731
C       -1.91887724       1.61579777       0.33629993
N       -3.32757734       3.26520340       3.20936816
C       -4.42385247       4.01827126       2.88416480
S       -5.14529526       4.82513894       4.16185503
N       -4.80353419       4.02975198       1.55690809
C       -5.91888355       4.61623206       0.96973364
O       -6.87328493       5.09462904       1.57586330
C       -5.99032019       4.59653019      -0.51920688
C       -7.26320975       4.61160054      -1.10308796
C       -7.41149514       4.70992782      -2.48711932
C       -6.28970271       4.80064159      -3.32512196
C       -5.01451217       4.77865633      -2.73382719
C       -4.86166244       4.66916492      -1.34148078
C       -6.52732463       5.06195767      -4.79762346
N       -5.45610678       4.61547751      -5.68028521
N       -4.50917383       5.49278719      -6.08989679
C       -3.77621810       4.78642061      -6.95716400
C       -4.25482665       3.47875629      -7.09576070
C       -5.34205221       3.38470823      -6.26868615
H        0.14721791       0.39768643       2.71772498
H       -1.32238641       1.83500840       4.08867928
H       -2.13349377       1.58652737      -0.72863636
H       -3.11414161       3.28543236       4.19929924
H       -4.17714082       3.50437672       0.95335389
H       -8.15157480       4.58248003      -0.47338877
H       -8.41824686       4.75649206      -2.89950494
H       -4.11989641       4.89153033      -3.34643651
H       -3.85938338       4.70629206      -0.92263406
H       -6.66814078       6.13642908      -4.96340395
H       -7.43493240       4.54537277      -5.13410556
H       -2.93692157       5.26340815      -7.44618748
H       -6.03316549       2.58115759      -6.05854556
C       -3.69877569       2.46806029      -7.95767771
C       -3.23308302       1.62160239      -8.67953320
Br      -2.48009735       0.25295156      -9.84671248
C        0.87775726      -0.87775726       0.87775726
C        0.50212463      -2.17968041       1.17592966
C        1.33100158      -2.95197452       1.98819872
C        2.50984882      -2.39485166       2.47846126
N        2.89728451      -1.13012073       2.19413325
C        2.06925643      -0.40032305       1.40139546
N        3.30355598      -3.19914120       3.29945172
C        4.47192860      -2.90463295       3.94972698
S        5.12179388      -4.15184945       4.85864590
N        4.97716031      -1.63082848       3.78220548
C        6.07434405      -1.03592010       4.39458510
O        6.69869882      -1.50153421       5.34354424
C        6.47831391       0.31144619       3.90077579
C        7.12717299       1.16100488       4.80555422
C        7.63709308       2.39107221       4.38828278
C        7.51586016       2.80309206       3.05245423
C        6.85803287       1.94895822       2.15026666
C        6.33428092       0.71452143       2.56958710
C        8.22756806       4.07375402       2.63784479
N        7.66066764       4.74170535       1.47233679
N        8.18986281       4.52286336       0.24506478
C        7.51608041       5.36493784      -0.54566786
C        6.57341158       6.10863570       0.17304636
C        6.68152476       5.69841296       1.47496249
H       -0.42278647      -2.60040315       0.79057682
H        1.04431214      -3.97029066       2.23147129
H        2.40648767       0.61241068       1.19730778
H        2.97862032      -4.14160178       3.47865111
H        4.43434013      -1.06285510       3.13767619
H        7.27006684       0.84868602       5.83928523
H        8.16793278       3.00607481       5.11337600
H        6.78255704       2.21282315       1.09525634
H        5.87767049       0.06335924       1.82873013
H        9.27795673       3.85228893       2.41549811
H        8.20121963       4.80786291       3.45284290
H        7.75180240       5.39627800      -1.60138216
H        6.17398600       5.99859199       2.38038351
C        5.69502963       7.10778339      -0.37808796
C        4.95938474       7.94456958      -0.83966296
Br       3.76990918       9.29758207      -1.58599069
