182
Properties=species:S:1:pos:R:3 pbc="F F F"
C        1.78766129       1.78766129      -1.78766129
C        1.40928988       3.08772996      -2.09042693
C        2.23827597       3.86006990      -2.90254101
C        3.41998116       3.30484235      -3.38805031
N        3.81009182       2.04196011      -3.09919863
C        2.98189195       1.31206523      -2.30672983
N        4.21373418       4.10905723      -4.20906956
C        5.38468555       3.81597620      -4.85533886
S        6.03362802       5.06248007      -5.76589321
N        5.89293633       2.54402407      -4.68294594
C        6.99341665       1.95045363      -5.29069105
O        7.61909511       2.41518159      -6.23921264
C        7.39971304       0.60555460      -4.79208794
C        8.05336965      -0.24469243      -5.69275718
C        8.56550464      -1.47221218      -5.27072327
C        8.44173731      -1.88090966      -3.93410675
C        7.77910716      -1.02611917      -3.03606540
C        7.25313409       0.20572649      -3.46019809
C        9.15577686      -3.14847789      -3.51407194
N        8.58751184      -3.81479213      -2.34829143
N        9.11274079      -3.59114638      -1.12018189
C        8.43909787      -4.43289991      -0.32898883
C        7.50043910      -5.18114077      -1.04823599
C        7.61099873      -4.77418365      -2.35097128
H        0.48217935       3.50696771      -1.70875852
H        1.94947187       4.87692757      -3.14938672
H        3.32132964       0.30082134      -2.09894586
H        3.88671586       5.05013022      -4.39173920
H        5.34990611       1.97632892      -4.03834846
H        8.19824222       0.06518999      -6.72694593
H        9.10000904      -2.08773720      -5.99267420
H        7.70146133      -1.28730506      -1.98054603
H        6.79271634       0.85765738      -2.72237973
H       10.20494279      -2.92352748      -3.28946267
H        9.13366933      -3.88488137      -4.32712373
H        8.67200997      -4.46070783       0.72744783
H        7.10676615      -5.07822666      -3.25695010
C        6.62328427      -6.18118211      -0.49676819
C        5.88866711      -7.01871673      -0.03491391
Br       4.70085329      -8.37293938       0.71186541
C       -1.78766129      -1.78766129      -1.78766129
C       -1.41510112      -2.08071852      -3.09162712
C       -2.24870977      -2.88511006      -3.86706705
C       -3.43123886      -3.36924292      -3.31239203
N       -3.80920333      -3.10068296      -2.04136427
C       -2.97806411      -2.31312471      -1.30949818
N       -4.24316599      -4.15990008      -4.12879490
C       -5.46376392      -4.72322866      -3.86900803
S       -6.12983374      -5.60516964      -5.12699792
N       -5.99877753      -4.50612511      -2.61500370
C       -7.24682503      -4.86734098      -2.12039531
O       -8.17777554      -5.30586783      -2.78984597
C       -7.49401951      -4.63453731      -0.66879876
C       -8.81794848      -4.41543362      -0.26805230
C       -9.14427023      -4.30382371       1.08407822
C       -8.15502075      -4.41310226       2.07318861
C       -6.82698383      -4.62670526       1.66463571
C       -6.49363571      -4.72903413       0.30361118
C       -8.60226678      -4.43877903       3.51967491
N       -7.59423236      -4.00768774       4.48090895
N       -6.83339664      -4.92810841       5.11972875
C       -6.12030613      -4.20281742       5.98793676
C       -6.42768024      -2.84041244       5.90055836
C       -7.38380656      -2.73052392       4.92654411
H       -0.49192173      -1.69248267      -3.51350118
H       -1.96898973      -3.11677972      -4.89001671
H       -3.31353911      -2.11196091      -0.29559683
H       -3.91665921      -4.34171513      -5.07021094
H       -5.38352383      -3.98218590      -1.99887376
H       -9.61132093      -4.36622305      -1.01283416
H      -10.19019235      -4.17138804       1.35663435
H       -6.03692480      -4.76136032       2.40358282
H       -5.46284336      -4.94409714       0.03418705
H       -8.90851141      -5.45531175       3.79294518
H       -9.46409445      -3.77510767       3.66329043
H       -5.41980521      -4.70576274       6.64171364
H       -7.92735869      -1.88604870       4.52791780
C       -5.84599934      -1.79531887       6.70244786
C       -5.35884159      -0.92005301       7.37403032
Br      -4.57114871       0.49517786       8.45992235
C       -1.78766129       1.78766129       1.78766129
C       -1.48467587       1.97403757       3.12873334
C       -2.31625016       2.78215571       3.90248102
C       -3.42722506       3.37686636       3.30878239
N       -3.73625142       3.21320173       2.00179740
C       -2.90897360       2.41930937       1.27240404
N       -4.24076679       4.16733358       4.12376060
C       -5.40424008       4.82514838       3.82661215
S       -6.09606047       5.66950297       5.09643786
N       -5.86760448       4.72205609       2.53024577
C       -7.05541999       5.19496333       1.98417801
O       -7.99961102       5.65172943       2.62214890
C       -7.22005965       5.06945702       0.50783890
C       -8.52562857       4.96363079       0.01217503
C       -8.76813215       4.95788414      -1.36200057
C       -7.71078526       5.06263266      -2.27848352
C       -6.40198245       5.16222526      -1.77515433
C       -6.15364484       5.15771313      -0.39229931
C       -8.05896567       5.20745229      -3.74504706
N       -7.01825606       4.77108483      -4.66832975
N       -6.16125266       5.67702091      -5.19649727
C       -5.43866313       4.96139712      -6.06487346
C       -5.83501551       3.61950405      -6.08698525
C       -6.85841532       3.51289410      -5.18352306
H       -0.61725779       1.50020925       3.58043854
H       -2.09094957       2.93095755       4.95387904
H       -3.18850658       2.30401302       0.22857724
H       -3.96657241       4.26844769       5.09356518
H       -5.24663153       4.19779537       1.92015659
H       -9.36802702       4.92090071       0.70145040
H       -9.79994039       4.91204154      -1.70703588
H       -5.55797215       5.28990547      -2.45317533
H       -5.13157431       5.28703745      -0.04585831
H       -8.28285981       6.25699035      -3.96897218
H       -8.94889752       4.61239522      -3.98538104
H       -4.66663999       5.45649241      -6.63927808
H       -7.47844085       2.68311695      -4.87606820
C       -5.26750644       2.58997034      -6.91860644
C       -4.79221760       1.72773586      -7.61508918
Br      -4.02371574       0.33357562      -8.74124286
C        1.78766129      -1.78766129       1.78766129
C        1.59441438      -3.16086384       1.83216855
C        2.41627333      -3.93176696       2.65284659
C        3.40515478      -3.30232040       3.40539863
N        3.61411975      -1.96603828       3.37109253
C        2.79736097      -1.23972480       2.56360124
N        4.19675185      -4.11087340       4.22423573
C        5.19624231      -3.76571216       5.09404613
S        5.90834525      -5.04147643       5.91217962
N        5.50213610      -2.42323972       5.19453052
C        6.38777137      -1.78869615       6.05809381
O        6.93988917      -2.31187132       7.02172886
C        6.62884558      -0.33473643       5.83377357
C        6.99336505       0.43645875       6.94452810
C        7.34643238       1.77826222       6.79584556
C        7.34899396       2.38441295       5.53035339
C        6.97611246       1.60705392       4.41999484
C        6.60997891       0.25868856       4.56776831
C        7.89190413       3.79396126       5.42342803
N        7.39301305       4.55860407       4.28660218
N        8.11947262       4.62314705       3.14545073
C        7.43438012       5.48054443       2.38135109
C        6.28946457       5.95392642       3.03199616
C        6.27860157       5.35328762       4.26247242
H        0.81593337      -3.63860907       1.24336314
H        2.27064518      -5.00649239       2.69864859
H        2.98769422      -0.16978108       2.56362155
H        4.01030622      -5.10637007       4.21190898
H        4.96954940      -1.83902929       4.55600480
H        7.03820176      -0.01929730       7.93287906
H        7.66004220       2.33357995       7.67848379
H        7.00811005       2.02858723       3.41517948
H        6.37703453      -0.31880190       3.67691702
H        8.98521223       3.76332934       5.34899509
H        7.62925882       4.37176008       6.31841295
H        7.80870289       5.71930868       1.39446009
H        5.60537299       5.42448660       5.10460320
C        5.34475941       6.89598742       2.49009836
C        4.55356884       7.68496351       2.03625896
Br       3.27428060       8.96067112       1.30243902
C       -0.00445707       0.01189536      -1.78238275
H       -0.66409135       0.67374010      -2.43557963
H        0.65740317      -0.63156657      -2.45157240
C       -0.90989263      -0.90692880      -0.91072765
C        0.90977584       0.90977584      -0.90977584
C       -0.00465871       1.77757030       0.00794375
H       -0.66225468       2.44313916      -0.64384735
H        0.64322798       2.43503045       0.67728295
C       -1.78241447       0.00034974      -0.00472694
H       -2.45427497      -0.65498947       0.64260836
H       -2.43311707       0.67328779      -0.65473579
C       -0.91132561       0.90220522       0.91563759
C       -0.01476271      -0.02253852       1.78660255
H       -0.67934791      -0.69751639       2.42135241
H        0.63392994       0.61504881       2.47327442
C        0.01484550      -1.77751727      -0.01636693
H        0.67870853      -2.42144646      -0.68295456
H       -0.62264859      -2.45592969       0.64226336
C        1.78714474       0.01002794       0.00389507
H        2.44202412       0.67113390       0.66197326
H        2.45385902      -0.65136977      -0.64189061
C        0.91606151      -0.90478549       0.90901405
