189
Properties=species:S:1:pos:R:3 pbc="F F F"
C        0.00000000       0.00000000       0.00000000
C        0.88175436       0.88175436      -0.88175436
C        0.39069174       2.09563724      -1.35688115
C        1.19950037       2.90010506      -2.16407615
C        2.49569663       2.49182251      -2.50947037
C        2.97676808       1.26892026      -2.01851917
C        2.17227092       0.46603258      -1.20404757
C        3.32552313       3.32657176      -3.37461650
C        4.26133737       2.90499703      -4.34651746
C        4.76453501       4.05003459      -4.94203331
C        5.68718475       4.13799207      -6.07532335
C        6.79465837       3.27782225      -6.13800325
C        7.63034505       3.26166029      -7.25897939
C        7.36809243       4.11565220      -8.32604267
Br       8.48184888       4.08319518      -9.85227684
C        6.27512419       4.97711443      -8.28418851
C        5.43035037       4.97564062      -7.16903008
N        4.20536962       5.08294903      -4.21462635
N        3.24468094       4.66163134      -3.35799193
C        4.46171942       6.51760309      -4.29071334
C        5.50126486       6.98625029      -3.29235778
C        6.85009536       7.02835331      -3.70434007
C        7.85977602       7.48880056      -2.84806533
C        9.29072063       7.52364906      -3.29822889
C        7.52541594       7.87231245      -1.55078007
C        6.19906264       7.82486898      -1.12188628
C        5.17431193       7.39501923      -1.98167051
C        3.76500877       7.37280181      -1.45167120
H       -0.61398438       2.42631689      -1.10874958
H        0.81214956       3.84841989      -2.53325662
H        3.98590459       0.93714382      -2.25013807
H        2.56239873      -0.47551544      -0.82683603
H        4.49673694       1.88720806      -4.62466895
H        7.00590466       2.59292246      -5.31886197
H        8.46814745       2.57004828      -7.29343394
H        6.05518913       5.63352885      -9.12230777
H        4.54710492       5.60893436      -7.19066454
H        3.50601203       7.03364818      -4.14666564
H        4.77604951       6.77260501      -5.30471774
H        7.11599734       6.70857148      -4.70966887
H        9.36241086       7.54357736      -4.39064432
H        9.82188689       6.64180576      -2.92769317
H        9.78868772       8.42452816      -2.92397070
H        8.29436414       8.21271971      -0.86105941
H        5.96746305       8.12834385      -0.10329725
H        3.41397783       6.34477308      -1.33666808
H        3.09253371       7.92727282      -2.11246077
H        3.70174808       7.84780824      -0.46636537
C       -0.88175436      -0.88175436      -0.88175436
C       -1.97010240      -0.32422545      -1.54888227
C       -2.77560504      -1.13358198      -2.35449455
C       -2.50560337      -2.50299311      -2.48839302
C       -1.40276931      -3.04763646      -1.81380175
C       -0.59056289      -2.23820534      -1.01358284
C       -3.36748127      -3.34718328      -3.31204683
C       -3.72642588      -4.69625512      -3.09017085
C       -4.59483453      -5.05298746      -4.10878092
C       -5.32201208      -6.31408181      -4.26440629
C       -4.66610157      -7.52970356      -4.01467873
C       -5.36172560      -8.74225595      -4.04700318
C       -6.72234725      -8.74824600      -4.33919405
Br      -7.67181400     -10.38189663      -4.36361027
C       -7.39219231      -7.55382319      -4.59041162
C       -6.69625217      -6.34135381      -4.53741508
N       -4.60586730      -3.95277158      -4.94430612
N       -3.97445785      -2.88084668      -4.40899968
C       -5.23711131      -3.78374395      -6.24918059
C       -4.29897177      -4.07844517      -7.40245599
C       -4.27137144      -5.39037019      -7.92104710
C       -3.45837276      -5.72580592      -9.01246323
C       -3.43577060      -7.12633242      -9.55049556
C       -2.63145551      -4.75056608      -9.56648687
C       -2.63579849      -3.45163188      -9.05838753
C       -3.46986278      -3.09607931      -7.98505959
C       -3.42431604      -1.67442410      -7.49074165
H       -2.20229182       0.73259780      -1.45138806
H       -3.62524721      -0.69398745      -2.87459140
H       -1.15482932      -4.10116142      -1.91719574
H        0.26365096      -2.67457354      -0.50279674
H       -3.43721330      -5.31741033      -2.25399031
H       -3.60558221      -7.54207247      -3.77003441
H       -4.83627692      -9.66803600      -3.82731676
H       -8.45854612      -7.55093666      -4.80154298
H       -7.25630177      -5.41932816      -4.67107389
H       -5.62587840      -2.76064733      -6.29980011
H       -6.11619143      -4.42850156      -6.30867928
H       -4.90009943      -6.15847484      -7.47566341
H       -4.34691731      -7.66989153      -9.27982370
H       -2.57265205      -7.66741278      -9.15132099
H       -3.37690172      -7.11614663     -10.64413823
H       -1.97592737      -4.99220143     -10.40001446
H       -1.97853233      -2.71135363      -9.50921819
H       -2.96982870      -1.62706319      -6.49852710
H       -4.42758597      -1.23957232      -7.46510901
H       -2.82268143      -1.04111975      -8.15212052
C       -0.88175436       0.88175436       0.88175436
C       -2.06354396       0.36846833       1.41119784
C       -2.86875295       1.17779019       2.21713843
C       -2.50433912       2.50436392       2.48828647
C       -1.30853728       3.00420141       1.95146883
C       -0.49713619       2.19380902       1.15140586
C       -3.36434399       3.35167901       3.31068839
C       -3.59584714       4.73972557       3.17727914
C       -4.51731110       5.08810675       4.15118506
C       -5.15370809       6.39053061       4.35626147
C       -4.38532996       7.56156659       4.26358732
C       -4.98367539       8.82277695       4.34453238
C       -6.35957805       8.92192827       4.52828098
Br      -7.17626642      10.62368655       4.61736793
C       -7.14025701       7.77302060       4.62314952
C       -6.53982602       6.51349103       4.52170402
N       -4.68611416       3.93057612       4.88625473
N       -4.09754586       2.85407256       4.31268578
C       -5.43779671       3.71399335       6.11824578
C       -4.58129838       3.83592442       7.36265013
C       -4.49501391       5.09585132       7.99192349
C       -3.75432608       5.27379027       9.16852556
C       -3.66769969       6.62061800       9.82428089
C       -3.05698086       4.19097653       9.70055106
C       -3.12003959       2.94114192       9.08463638
C       -3.88477679       2.74359859       7.92262630
C       -3.90910865       1.36652909       7.31384404
H       -2.36893225      -0.65372113       1.20587097
H       -3.79162340       0.77282009       2.62938256
H       -0.98826796       4.02130617       2.16361236
H        0.42922639       2.59445219       0.74849351
H       -3.18835466       5.39773294       2.42252634
H       -3.31011744       7.50253571       4.10503593
H       -4.37023111       9.71470762       4.24669094
H       -8.21765753       7.84460287       4.74876536
H       -7.17999678       5.63500766       4.53169938
H       -5.90869915       2.72702635       6.05060036
H       -6.26532134       4.42477429       6.16327665
H       -5.02107153       5.94746591       7.56570025
H       -4.50683962       7.25958206       9.53021086
H       -2.73378943       7.11572982       9.54186657
H       -3.70340908       6.51948700      10.91429050
H       -2.45805473       4.30947104      10.60061749
H       -2.56391393       2.11430070       9.52088952
H       -3.37669775       1.35869520       6.36002605
H       -4.93759908       1.02229499       7.17237325
H       -3.41780514       0.63413443       7.96398212
C        0.88175436      -0.88175436       0.88175436
C        0.46778219      -2.17242258       1.20300535
C        1.27632206      -2.97677425       2.01058527
C        2.49415347      -2.49314532       2.50969071
C        2.89872529      -1.19290293       2.17257930
C        2.09523348      -0.38906700       1.35805059
C        3.32141593      -3.33116633       3.37412914
C        4.12686830      -2.92396661       4.46201694
C        4.68233736      -4.07246273       5.00180282
C        5.50868104      -4.18692906       6.20489008
C        6.52116684      -3.24473105       6.44458597
C        7.25254412      -3.26221606       7.63622455
C        6.98107782      -4.23180753       8.59690195
Br       7.95202941      -4.24730644      10.21798505
C        5.98131710      -5.17599754       8.37911249
C        5.23877433      -5.14234349       7.19390324
N        4.28685963      -5.07671074       4.13937463
N        3.36782939      -4.66078175       3.23569307
C        4.66913075      -6.48492179       4.11598331
C        5.82972232      -6.76711563       3.18303498
C        7.13628632      -6.73195979       3.71454262
C        8.25431493      -7.02190009       2.92042689
C        9.63837717      -6.97609420       3.49812720
C        8.06975125      -7.30931389       1.56944331
C        6.78643041      -7.33566140       1.02372609
C        5.65602201      -7.07769085       1.81728881
C        4.30144932      -7.12668614       1.16134633
H       -0.47649771      -2.56322376       0.83435604
H        0.94939765      -3.98520685       2.25922155
H        3.84874116      -0.79908351       2.52536181
H        2.42623483       0.61364448       1.10112896
H        4.24110501      -1.92033383       4.84717510
H        6.73665620      -2.47047735       5.71055553
H        8.01576447      -2.50766558       7.80819963
H        5.75291277      -5.92452025       9.13359274
H        4.42020612      -5.84819974       7.07829796
H        3.78188694      -7.06515160       3.83928732
H        4.91796141      -6.80600649       5.12940437
H        7.28393174      -6.48625016       4.76405578
H        9.61777497      -7.09214615       4.58671141
H       10.11430103      -6.02114803       3.25593675
H       10.24883992      -7.79192976       3.09641690
H        8.92347398      -7.51642460       0.92824468
H        6.67241658      -7.56101434      -0.03432678
H        3.86672316      -6.12626968       1.10242615
H        3.62980183      -7.79623055       1.70623494
H        4.36764311      -7.51088180       0.13739678
