197
Properties=species:S:1:pos:R:3 pbc="F F F"
C        0.00000000       0.00000000       0.00000000
C        0.88175436       0.88175436      -0.88175436
C        0.39069174       2.09563724      -1.35688115
C        1.19950037       2.90010506      -2.16407615
C        2.49569663       2.49182251      -2.50947037
C        2.97676808       1.26892026      -2.01851917
C        2.17227092       0.46603258      -1.20404757
C        3.32552313       3.32657176      -3.37461650
C        4.26133737       2.90499703      -4.34651746
C        4.76453501       4.05003459      -4.94203331
C        5.68718475       4.13799207      -6.07532335
C        6.79465837       3.27782225      -6.13800325
C        7.63034505       3.26166029      -7.25897939
C        7.36809243       4.11565220      -8.32604267
C        6.27512419       4.97711443      -8.28418851
C        5.43035037       4.97564062      -7.16903008
N        4.20536962       5.08294903      -4.21462635
N        3.24468094       4.66163134      -3.35799193
C        4.46171942       6.51760309      -4.29071334
C        5.50126486       6.98625029      -3.29235778
C        6.85009536       7.02835331      -3.70434007
C        7.85977602       7.48880056      -2.84806533
C        9.29072063       7.52364906      -3.29822889
C        7.52541594       7.87231245      -1.55078007
C        6.19906264       7.82486898      -1.12188628
C        5.17431193       7.39501923      -1.98167051
C        3.76500877       7.37280181      -1.45167120
H       -0.61398438       2.42631689      -1.10874958
H        0.81214956       3.84841989      -2.53325662
H        3.98590459       0.93714382      -2.25013807
H        2.56239873      -0.47551544      -0.82683603
H        4.49673694       1.88720806      -4.62466895
H        7.00590466       2.59292246      -5.31886197
H        8.46814745       2.57004828      -7.29343394
H        6.05518913       5.63352885      -9.12230777
H        4.54710492       5.60893436      -7.19066454
H        3.50601203       7.03364818      -4.14666564
H        4.77604951       6.77260501      -5.30471774
H        7.11599734       6.70857148      -4.70966887
H        9.36241086       7.54357736      -4.39064432
H        9.82188689       6.64180576      -2.92769317
H        9.78868772       8.42452816      -2.92397070
H        8.29436414       8.21271971      -0.86105941
H        5.96746305       8.12834385      -0.10329725
H        3.41397783       6.34477308      -1.33666808
H        3.09253371       7.92727282      -2.11246077
H        3.70174808       7.84780824      -0.46636537
C        8.21681162       4.09091888      -9.48908351
C        8.92761395       4.07020472     -10.46313022
Br      10.07692118       4.03671168     -12.03808135
C       -0.88175436      -0.88175436      -0.88175436
C       -1.95038105      -0.31789456      -1.57493451
C       -2.75594369      -1.12725188      -2.38048601
C       -2.50583287      -2.50271812      -2.48843852
C       -1.42263508      -3.05380443      -1.78776801
C       -0.61028414      -2.24456461      -0.98750231
C       -3.36803004      -3.34630053      -3.31238081
C       -3.75198937      -4.68581948      -3.07504300
C       -4.60983485      -5.04508678      -4.10168128
C       -5.35457403      -6.29689189      -4.24903426
C       -4.72223617      -7.51854670      -3.96970099
C       -5.43659605      -8.72034466      -3.99404402
C       -6.79236387      -8.70956409      -4.30785934
C       -7.43894880      -7.50890708      -4.58857125
C       -6.72460011      -6.30686598      -4.54355497
N       -4.59007166      -3.95835720      -4.95451614
N       -3.95009161      -2.88808281      -4.42612979
C       -5.19787874      -3.80032102      -6.27183609
C       -4.24651587      -4.12820846      -7.40514861
C       -4.23176007      -5.44854337      -7.90248529
C       -3.40713404      -5.81419150      -8.97531636
C       -3.39848779      -7.22333811      -9.49077268
C       -2.55607179      -4.86110725      -9.53132942
C       -2.54761878      -3.55429456      -9.04390456
C       -3.39269775      -3.16849229      -7.98981164
C       -3.33218478      -1.73999678      -7.51730022
H       -2.16712192       0.74388359      -1.49784375
H       -3.59013153      -0.68270472      -2.92098980
H       -1.19000179      -4.11262791      -1.87055678
H        0.22867268      -2.68610744      -0.45628455
H       -3.48598037      -5.29798414      -2.22464943
H       -3.66603937      -7.54371227      -3.70793744
H       -4.92957119      -9.65065550      -3.75140298
H       -8.50165876      -7.49259273      -4.81677426
H       -7.26763343      -5.37838526      -4.70068513
H       -5.56936304      -2.77216496      -6.34479785
H       -6.08612579      -4.43201081      -6.33523567
H       -4.87965288      -6.19940909      -7.45517572
H       -4.32237732      -7.74806121      -9.22619400
H       -2.55054619      -7.77149469      -9.06934494
H       -3.32223029      -7.23159946     -10.58335684
H       -1.89143955      -5.12636579     -10.35033792
H       -1.87155483      -2.83178534      -9.49576398
H       -2.89269508      -1.68392044      -6.51880348
H       -4.32864052      -1.28902858      -7.51459821
H       -2.71013259      -1.12692975      -8.17885936
C       -7.53535198      -9.94303766      -4.31842438
C       -8.15760452     -10.97607178      -4.32727259
Br      -9.16373425     -12.64640057      -4.34157940
C       -0.88175436       0.88175436       0.88175436
C       -2.05460532       0.36302784       1.42557697
C       -2.85984319       1.17235565       2.23148274
C       -2.50447506       2.50422703       2.48828742
C       -1.31756054       3.00956158       1.93708540
C       -0.50607219       2.19926580       1.13701308
C       -3.36468966       3.35122239       3.31079934
C       -3.60914032       4.73607386       3.16763767
C       -4.52527406       5.08494355       4.14638530
C       -5.17099730       6.38364142       4.34586146
C       -4.41344384       7.56029944       4.23674059
C       -5.02181637       8.81705001       4.31211834
C       -6.39691169       8.90612760       4.50674801
C       -7.16693523       7.75151099       4.61798091
C       -6.55666495       6.49628391       4.52207220
N       -4.67797929       3.93233724       4.89262847
N       -4.08512343       2.85599677       4.32318401
C       -5.41734413       3.71992000       6.13277171
C       -4.55142569       3.85969542       7.36875182
C       -4.47057055       5.12562699       7.98659119
C       -3.72150512       5.31984889       9.15528789
C       -3.64082520       6.67290373       9.79886965
C       -3.01047842       4.24754609       9.69048395
C       -3.06808261       2.99201637       9.08571891
C       -3.84090512       2.77811258       7.93198397
C       -3.85863996       1.39574542       7.33509640
H       -2.35299120      -0.66342089       1.23151178
H       -3.77570825       0.76312705       2.65499076
H       -1.00419370       4.03110991       2.13788286
H        0.41340053       2.60427687       0.72284298
H       -3.21366974       5.39104323       2.40390097
H       -3.33914606       7.50901188       4.06953115
H       -4.41684929       9.71326880       4.20151158
H       -8.24380635       7.81504969       4.75216971
H       -7.18921400       5.61253639       4.54495343
H       -5.88036846       2.72846578       6.07749160
H       -6.25048935       4.42403684       6.17884608
H       -5.00745594       5.96909777       7.55768398
H       -4.48783963       7.30221906       9.50657384
H       -2.71359207       7.17346797       9.50432578
H       -3.66645347       6.58077286      10.88996025
H       -2.40499573       4.37877113      10.58437640
H       -2.50125780       2.17365692       9.52418943
H       -3.33426531       1.38428026       6.37687342
H       -4.88531702       1.04163375       7.20531654
H       -3.35562957       0.67310149       7.98719064
C       -7.02969442      10.19814700       4.56897260
C       -7.55964995      11.28021324       4.62108569
Br      -8.41654322      13.02982285       4.70534815
C        0.88175436      -0.88175436       0.88175436
C        0.43537788      -2.14507807       1.26275418
C        1.24402748      -2.94946784       2.07018626
C        2.49474090      -2.49261278       2.50963583
C        2.93149316      -1.21993704       2.11277731
C        2.12762049      -0.41648071       1.29824987
C        3.32295641      -3.32934345       3.37441153
C        4.18011776      -2.91392477       4.41880933
C        4.71465554      -4.06223394       4.97971342
C        5.57885956      -4.16462853       6.15701209
C        6.63100328      -3.25137163       6.32810896
C        7.40328155      -3.25391814       7.49378504
C        7.13301689      -4.17966085       8.49710956
C        6.09429364      -5.09460747       8.34752602
C        5.31164778      -5.07529357       7.18807971
N        4.25447721      -5.08081094       4.16765686
N        3.31870914      -4.66373896       3.28185611
C        4.58706957      -6.50170288       4.18126340
C        5.70335321      -6.85689469       3.21962504
C        7.02843627      -6.85000769       3.70434477
C        8.10688237      -7.20665259       2.88310694
C        9.51137818      -7.19029891       3.41092148
C        7.86460454      -7.53356084       1.55034307
C        6.56253324      -7.53296541       1.05031924
C        5.47060452      -7.20782967       1.87256748
C        4.09266885      -7.23110604       1.26570689
H       -0.53428829      -2.51446976       0.94090062
H        0.89170484      -3.93649302       2.36562820
H        3.90642745      -0.84827998       2.41847905
H        2.48352376       0.56440065       0.99459621
H        4.34239756      -1.90235258       4.76386380
H        6.84671249      -2.51094967       5.56002693
H        8.19760887      -2.52153716       7.61248364
H        5.86729683      -5.80816788       9.13556105
H        4.46571876      -5.75513414       7.12585092
H        3.67113348      -7.05916160       3.95603077
H        4.86062096      -6.79643185       5.19631946
H        7.22168242      -6.57379601       4.73875925
H        9.52554448      -7.26807782       4.50301023
H       10.01090976      -6.26177444       3.11870161
H       10.07877379      -8.04065607       3.01775673
H        8.68735437      -7.79282049       0.88796841
H        6.40327305      -7.79033525       0.00549585
H        3.69074745      -6.21847116       1.18620039
H        3.41822763      -7.85721534       1.85682434
H        4.10915209      -7.65236412       0.25440548
C        7.91555365      -4.17534247       9.70591788
C        8.57092819      -4.17172583      10.71829486
Br       9.63061340      -4.16587803      12.35522279
