189
Properties=species:S:1:pos:R:3 pbc="F F F"
C        0.00000000       0.00000000       0.00000000
C        0.88258557       0.88258557      -0.88258557
C        0.85740942       2.26613326      -0.71455062
C        1.66531024       3.06990247      -1.51737618
C        2.49312361       2.48497959      -2.47938048
C        2.52189870       1.09471634      -2.65737524
C        1.70465904       0.29616468      -1.84564442
C        3.40084772       0.48009552      -3.66329445
C        4.14621610      -0.74486650      -3.53022733
C        4.78871643      -0.88037809      -4.69267571
N        4.62987209       0.07093600      -5.63374883
N        3.76649970       1.11275988      -4.92872791
C        2.62866142       1.52632087      -5.76926041
C        2.98921315       2.34053738      -7.01637870
C        4.13714659       3.15690157      -7.01658039
C        4.48707948       3.94153438      -8.12287509
C        5.75851735       4.73348667      -8.11078902
C        3.67863679       3.90346326      -9.25951661
C        2.52516418       3.11745966      -9.27544976
C        2.15905317       2.34619533      -8.15961671
C        0.92259000       1.49534848      -8.23849298
C        5.62947036      -2.03625170      -5.00146045
C        6.98197218      -2.04333114      -4.64025380
C        7.78922924      -3.14125536      -4.94380477
C        7.24535653      -4.24106812      -5.60791562
C        5.89616883      -4.23561787      -5.96358429
Br       5.16401422      -5.72719328      -6.87088426
C        5.08682278      -3.14182229      -5.66526899
H        0.21808461       2.72418103       0.03294929
H        1.65808810       4.14991981      -1.39974893
H        3.13174566       3.11140599      -3.10122730
H        1.71148675      -0.78264121      -1.97748492
H        4.15492110      -1.40477832      -2.68341038
H        1.94392463       2.16580144      -5.19890070
H        2.06292778       0.63186267      -6.06008361
H        4.78305604       3.13765231      -6.13842032
H        5.98866741       5.08908935      -7.10093369
H        5.67503444       5.61607293      -8.75387629
H        6.58912528       4.11558325      -8.46667499
H        3.94712340       4.47457907     -10.14356395
H        1.91538797       3.09845266     -10.17497099
H        1.19728973       0.44203455      -8.35654857
H        0.29690193       1.77947561      -9.09183426
H        0.30748704       1.61690297      -7.34128775
H        7.39751219      -1.17259187      -4.14133076
H        8.83990059      -3.12714493      -4.67155440
H        7.87852119      -5.08855249      -5.84973847
H        4.03960051      -3.11729177      -5.95342948
C       -0.88258557      -0.88258557      -0.88258557
C       -0.60827566      -0.98434036      -2.24547729
C       -1.41144756      -1.79228691      -3.04885441
C       -2.48008677      -2.49349822      -2.48389869
C       -2.76510110      -2.39400864      -1.11488053
C       -1.95191375      -1.57788953      -0.31666486
C       -3.88385061      -3.14024523      -0.52014186
C       -3.90622786      -3.79011328       0.76476421
C       -5.12458782      -4.32895683       0.85253060
N       -5.97426160      -4.17789440      -0.18240092
N       -5.12329395      -3.45944024      -1.22525329
C       -5.83331618      -2.29890394      -1.79202259
C       -7.04032715      -2.62938205      -2.67642003
C       -7.07299451      -3.83731785      -3.40031619
C       -8.14144605      -4.16552066      -4.24452223
C       -8.17393573      -5.49510545      -4.93375186
C       -9.20720808      -3.27256494      -4.36184364
C       -9.18780759      -2.06039871      -3.66986730
C       -8.10752789      -1.71794692      -2.83939040
C       -8.14876933      -0.41318259      -2.09447955
C       -5.58863216      -5.04568460       2.03963765
C       -5.34167273      -6.41655241       2.17933031
C       -5.79334776      -7.10516714       3.30673625
C       -6.49213484      -6.42358781       4.30351862
C       -6.73398820      -5.05630032       4.16615327
Br      -7.68872359      -4.13684825       5.51786665
C       -6.28765782      -4.36487130       3.04225964
H        0.22203031      -0.44365607      -2.68769058
H       -1.21179926      -1.88304011      -4.11291748
H       -3.10296726      -3.13239176      -3.10901994
H       -2.16556098      -1.48576286       0.74499337
H       -3.11567602      -3.80882050       1.49094335
H       -5.16148816      -1.71456517      -2.43257344
H       -6.14374576      -1.64092019      -0.97020810
H       -6.25505359      -4.54437772      -3.25969736
H       -7.16235777      -5.82993127      -5.18640140
H       -8.73894105      -5.43593756      -5.87010505
H       -8.64301936      -6.24249014      -4.28587403
H      -10.06434841      -3.51915259      -4.98176542
H      -10.03286242      -1.38446714      -3.77148205
H       -8.36884866      -0.59038722      -1.03663697
H       -8.92356203       0.25007242      -2.49472218
H       -7.19729847       0.11976608      -2.18814537
H       -4.81388635      -6.93916806       1.38680334
H       -5.60830410      -8.17108637       3.39508041
H       -6.84907443      -6.96453788       5.17390513
H       -6.48585559      -3.30435251       2.91446987
C       -0.88258557       0.88258557       0.88258557
C       -0.83760887       0.73276211       2.26772232
C       -1.64011172       1.54055242       3.07192473
C       -2.47877038       2.49258182       2.48613149
C       -2.53276890       2.64737741       1.09384397
C       -1.72261908       1.82912573       0.29472333
C       -3.40838851       3.65635884       0.47949035
C       -3.11070234       4.48263759      -0.66176300
C       -4.20212092       5.23219494      -0.83330181
N       -5.23173970       5.08018315       0.02263408
N       -4.69070140       4.07869654       1.03858955
C       -5.65190406       2.98864329       1.28369536
C       -6.93216696       3.38986035       2.02410192
C       -6.91161964       4.46476825       2.93424066
C       -8.05032108       4.84559575       3.65557212
C       -8.00561346       6.04403003       4.55314956
C       -9.24018879       4.14429808       3.45712978
C       -9.27983093       3.06286801       2.57537467
C       -8.13410514       2.66408299       1.86667708
C       -8.23724804       1.51086115       0.90832228
C       -4.34159869       6.18597603      -1.93289562
C       -3.87450232       7.49833862      -1.79394611
C       -4.01647353       8.41378399      -2.83847888
C       -4.62401241       8.01888794      -4.03069633
C       -5.08520402       6.70946641      -4.17053518
Br      -5.91530017       6.17989156      -5.78748654
C       -4.94824082       5.79272928      -3.13070061
H       -0.18594768      -0.00339147       2.72676013
H       -1.61746068       1.43711586       4.15318030
H       -3.09967711       3.13072224       3.11397961
H       -1.75952094       1.93330563      -0.78649611
H       -2.21189947       4.47049791      -1.24884422
H       -5.19549139       2.20828324       1.90485214
H       -5.90828712       2.52332744       0.32325949
H       -5.98642230       5.03162830       3.04107807
H       -7.01525136       6.15673659       5.00670249
H       -8.72735737       5.94651266       5.37111363
H       -8.23928821       6.94894326       3.98315206
H      -10.14617817       4.44200442       3.97708382
H      -10.22004635       2.53678971       2.43197556
H       -8.24132155       1.87782427      -0.12327298
H       -9.15913908       0.94082181       1.06825091
H       -7.40583531       0.81260608       1.04723636
H       -3.42138103       7.79836386      -0.85349381
H       -3.66360542       9.43243427      -2.71172962
H       -4.74025952       8.73614395      -4.83669631
H       -5.31998175       4.77580320      -3.22004672
C        0.88258557      -0.88258557       0.88258557
C        0.47158364      -2.17924307       1.18726659
C        1.27882033      -2.98458980       1.98917875
C        2.49059249      -2.48898925       2.47790194
C        2.90975541      -1.18497288       2.17926198
C        2.08981728      -0.38348612       1.37316474
C        4.18976306      -0.66837195       2.68610269
C        5.12236567       0.17548379       1.98469505
C        6.12209981       0.36918547       2.84809971
N        6.05548575      -0.22175814       4.05731303
N        4.78521257      -1.06143572       3.96133920
C        3.92048777      -0.86516025       5.13859468
C        4.46158344      -1.42688798       6.45765781
C        5.31422249      -2.54810198       6.44830407
C        5.80670976      -3.11322414       7.63155504
C        6.77408119      -4.25545137       7.57326049
C        5.44852531      -2.54057129       8.85252005
C        4.58878839      -1.44140935       8.88787587
C        4.07518007      -0.88551346       7.70417168
C        3.17577969       0.31518603       7.79583781
C        7.26965519       1.22509677       2.55012069
C        8.38936568       0.70256857       1.89209772
C        9.49064680       1.51520744       1.61633928
C        9.47541890       2.85796626       1.99475137
C        8.35731942       3.37956701       2.64638283
Br       8.34381416       5.20044206       3.16433309
C        7.25683428       2.57264451       2.92607972
H       -0.46727679      -2.56885623       0.80773690
H        0.97377318      -3.99758178       2.23640189
H        3.12666782      -3.12050407       3.09720707
H        2.39885767       0.63194930       1.13942208
H        5.01242047       0.57187451       0.99300721
H        2.95434225      -1.36309935       4.99118516
H        3.71384162       0.20720364       5.24823608
H        5.62214615      -2.95302163       5.48396089
H        6.56875580      -4.89877115       6.71116348
H        6.69549444      -4.87995157       8.46953765
H        7.79824783      -3.87653941       7.49659629
H        5.84534251      -2.93744318       9.78248072
H        4.33007843      -1.00819411       9.85053907
H        3.71898781       1.21645633       7.49334137
H        2.81445845       0.46544820       8.81920155
H        2.29113430       0.18913988       7.16368335
H        8.39644517      -0.34912803       1.62067788
H       10.35848504       1.09337694       1.11920197
H       10.33713042       3.48376518       1.78634193
H        6.38804575       2.96186370       3.44955618
