189
Properties=species:S:1:pos:R:3 pbc="F F F"
C        0.00000000       0.00000000       0.00000000
C        7.08467196       1.82241192      -2.32022769
C        7.20708713       3.27158607      -1.86163546
C        7.49531293       4.20794207      -3.01831501
C        8.86846157       4.47370457      -3.24581897
C        9.30115030       5.26021014      -4.30867506
C        8.37035864       5.78532747      -5.18667593
C        7.00997192       5.53423022      -4.99034452
C        6.53645866       4.77355158      -3.89872320
N        5.11403610       4.55129550      -3.78045713
N        4.60432025       3.68627070      -2.87581535
C        3.36113763       3.40912984      -3.28880461
C        2.50302925       2.51572389      -2.49678986
C        3.06546496       1.50474220      -1.70205094
C        2.26052108       0.69004691      -0.89778131
C        0.88139069       0.88139069      -0.88139069
C        0.30298654       1.88576377      -1.65139298
C        1.11221224       2.70413146      -2.44513885
C        3.05946305       4.14152796      -4.47545247
C        1.85605297       4.02482733      -5.33778475
C        4.06340882       5.10536642      -4.52753693
C        4.02072045       6.46463795      -5.07953738
C        4.31960968       7.55212161      -4.24161372
C        4.25157164       8.86509180      -4.71443737
C        3.86951405       9.09858400      -6.03257076
Br       3.76624112      10.87097326      -6.67832422
C        3.56066526       8.03372508      -6.87611076
C        3.63646962       6.71940997      -6.40101119
H        6.91193364       1.16700481      -1.46108401
H        7.99946694       1.48807397      -2.82127770
H        6.26129031       1.67808614      -3.02569310
H        8.03232366       3.32610608      -1.13819821
H        6.33854819       3.59773658      -1.28345792
H        9.62202575       4.04332940      -2.58696000
H       10.36172340       5.44119336      -4.45931707
H        8.69522711       6.37904265      -6.03723955
H        6.34616906       5.93163497      -5.74965245
H        4.14283679       1.35769410      -1.68894230
H        2.72242627      -0.07756337      -0.28285040
H       -0.77050088       2.05402901      -1.63009877
H        0.63745806       3.51232047      -2.99380409
H        2.11572694       4.18786847      -6.38782385
H        1.08632074       4.74394618      -5.04906045
H        1.43820833       3.01387265      -5.28971317
H        4.60105515       7.38599060      -3.20191878
H        4.48962985       9.68845421      -4.04793633
H        3.25736881       8.21372850      -7.90454501
H        3.40259311       5.90413445      -7.07935460
C       -5.67824270      -5.14715910      -0.40190976
C       -4.97301265      -6.35213886      -1.01515716
C       -5.62128439      -6.78512385      -2.31516177
C       -6.60359484      -7.79821497      -2.18617530
C       -7.33636526      -8.25790503      -3.27576521
C       -7.12013544      -7.69963221      -4.52259438
C       -6.16216505      -6.69444153      -4.67794008
C       -5.37435313      -6.23456245      -3.59981787
N       -4.41699061      -5.18152284      -3.84727529
N       -3.76373604      -4.56539476      -2.83727550
C       -3.29715920      -3.41740166      -3.34451123
C       -2.49465899      -2.51361413      -2.50726987
C       -2.68127834      -2.47426840      -1.11671136
C       -1.88003208      -1.66256653      -0.30575069
C       -0.88139069      -0.88139069      -0.88139069
C       -0.66986675      -0.91396152      -2.25631503
C       -1.46577679      -1.73447194      -3.06123383
C       -3.63807251      -3.31244392      -4.72592705
C       -3.44273244      -2.14854929      -5.62738331
C       -4.02397696      -4.60679521      -5.06554000
C       -3.90846638      -5.30516874      -6.35126065
C       -3.19040328      -6.51132550      -6.41161623
C       -3.02082087      -7.18825395      -7.62202599
C       -3.56139559      -6.65189075      -8.78738247
Br      -3.32978357      -7.55560657     -10.43014846
C       -4.26897022      -5.45241346      -8.74911742
C       -4.44269447      -4.78049429      -7.53370201
H       -5.21106687      -4.87983662       0.55088103
H       -6.73494698      -5.36297056      -0.21090107
H       -5.64266568      -4.26913239      -1.05327147
H       -5.02784518      -7.17721834      -0.29156442
H       -3.89886608      -6.18723391      -1.13364270
H       -6.81487224      -8.22935574      -1.20808716
H       -8.08652941      -9.03247093      -3.14323349
H       -7.70410720      -8.02939664      -5.37800547
H       -6.08864775      -6.26727185      -5.67153687
H       -3.44341471      -3.09478496      -0.65127352
H       -2.03745116      -1.65965457       0.76939243
H        0.11956016      -0.32170394      -2.71148312
H       -1.24226652      -1.77813538      -4.12318072
H       -4.25889901      -2.08003487      -6.35248538
H       -2.49580588      -2.21598669      -6.16753481
H       -3.46787077      -1.21007923      -5.06384414
H       -2.74466751      -6.93326931      -5.51102772
H       -2.46375161      -8.11996400      -7.64230478
H       -4.68797259      -5.02902264      -9.65864708
H       -5.00772540      -3.85302886      -7.52532789
C       -0.39016248       5.31112337       5.52602572
C       -1.14276888       4.57098158       6.62655820
C       -2.42266643       5.28461347       7.01429011
C       -2.30215319       6.17943844       8.10639348
C       -3.36882204       6.95905221       8.54216125
C       -4.58135426       6.87948357       7.88152420
C       -4.72695388       6.01032497       6.79726780
C       -3.67559695       5.17686598       6.35627051
N       -3.90908607       4.31879080       5.21791187
N       -2.90389742       3.63551064       4.62699825
C       -3.35347949       3.29222603       3.41336657
C       -2.50865534       2.49427630       2.51261135
C       -1.10942654       2.57594721       2.58688435
C       -0.29771682       1.77470034       1.77593214
C       -0.88139069       0.88139069       0.88139069
C       -2.26632580       0.77423493       0.79958257
C       -3.07308314       1.56908358       1.61931583
C       -4.69495308       3.74476711       3.23672329
C       -5.51604148       3.70261732       2.00000624
C       -5.10454409       4.06239054       4.52937755
C       -6.44502544       3.99643437       5.12343596
C       -6.64878498       3.20101166       6.26354837
C       -7.91657635       3.07702886       6.83749560
C       -8.99584204       3.74228911       6.26253767
Br     -10.71543788       3.57364230       7.02645842
C       -8.81531153       4.52850055       5.12668902
C       -7.54263139       4.65586131       4.55839807
H        0.54461923       4.79243664       5.29220505
H       -0.14147599       6.33198021       5.83536242
H       -0.97308863       5.38829481       4.60368610
H       -0.48257319       4.51118859       7.50286617
H       -1.32448089       3.52358504       6.37167676
H       -1.34747970       6.28376618       8.62106926
H       -3.24301693       7.63973059       9.37948631
H       -5.41576228       7.50240100       8.19334603
H       -5.68753993       6.04390717       6.29600938
H       -0.63986953       3.25395759       3.29564607
H        0.78295413       1.84894380       1.86172363
H       -2.72978290       0.06628238       0.11756162
H       -4.14846720       1.42519594       1.56991947
H       -6.17374483       4.57482946       1.94284497
H       -6.12586851       2.79754946       1.95590940
H       -4.88178217       3.75123299       1.10877898
H       -5.81729223       2.65854242       6.71312989
H       -8.04794458       2.45819354       7.71988227
H       -9.65749000       5.04517272       4.67297958
H       -7.42286086       5.28322577       3.67999552
C        1.37542519      -6.98453390       2.86735248
C        1.22524300      -6.74864664       4.36641902
C        2.48719669      -7.10981581       5.12455751
C        2.52151033      -8.43111316       5.63536162
C        3.63568849      -8.93721010       6.29713691
C        4.75576341      -8.13970628       6.44689235
C        4.75230676      -6.83479828       5.94744162
C        3.62323211      -6.27875357       5.30674776
N        3.71187968      -4.92598249       4.80792657
N        2.74632900      -4.39374591       4.02633140
C        3.30198184      -3.33713336       3.41995689
C        2.49976756      -2.49945457       2.51632086
C        1.41987781      -3.04645287       1.80592742
C        0.61348308      -2.24336854       0.99149768
C        0.88139069      -0.88139069       0.88139069
C        1.93890346      -0.31489138       1.58634845
C        2.73522645      -1.11917842       2.40707768
C        4.65254515      -3.17394580       3.84995253
C        5.66737710      -2.22403200       3.32725594
C        4.73349035      -3.98009774       4.98272408
C        5.56377599      -3.81890111       6.18221867
C        4.94033877      -3.73449419       7.43851205
C        5.68905885      -3.54004768       8.60199428
C        7.07269435      -3.41565572       8.51231875
Br       8.09259707      -3.14380386      10.07913767
C        7.70814671      -3.48772622       7.27462817
C        6.95558546      -3.68937981       6.11192550
H        0.43944496      -6.74893902       2.35163848
H        1.62395211      -8.02990760       2.65495890
H        2.16680845      -6.37077836       2.42748274
H        0.39694300      -7.37610574       4.72357920
H        0.89273188      -5.73254829       4.59446251
H        1.66349432      -9.08887332       5.49994751
H        3.63287878      -9.95660822       6.67274682
H        5.64347806      -8.53043920       6.93759204
H        5.68393828      -6.29067778       6.05284042
H        1.18621979      -4.10442154       1.89883186
H       -0.22363124      -2.68970281       0.46164173
H        2.14339679       0.75047989       1.52071000
H        3.51967699      -0.63910614       2.98479949
H        6.66548934      -2.67078624       3.35514369
H        5.68011510      -1.29604986       3.90316241
H        5.47710057      -1.99004318       2.27465039
H        3.85636034      -3.81031509       7.52228911
H        5.18414713      -3.48053377       9.56133949
H        8.78813517      -3.38605264       7.20145449
H        7.47287824      -3.75403745       5.15916647
