197
Properties=species:S:1:pos:R:3 pbc="F F F"
C        0.00000000       0.00000000       0.00000000
C        7.08467196       1.82241192      -2.32022769
C        7.20708713       3.27158607      -1.86163546
C        7.49531293       4.20794207      -3.01831501
C        8.86846157       4.47370457      -3.24581897
C        9.30115030       5.26021014      -4.30867506
C        8.37035864       5.78532747      -5.18667593
C        7.00997192       5.53423022      -4.99034452
C        6.53645866       4.77355158      -3.89872320
N        5.11403610       4.55129550      -3.78045713
N        4.60432025       3.68627070      -2.87581535
C        3.36113763       3.40912984      -3.28880461
C        2.50302925       2.51572389      -2.49678986
C        3.06546496       1.50474220      -1.70205094
C        2.26052108       0.69004691      -0.89778131
C        0.88139069       0.88139069      -0.88139069
C        0.30298654       1.88576377      -1.65139298
C        1.11221224       2.70413146      -2.44513885
C        3.05946305       4.14152796      -4.47545247
C        1.85605297       4.02482733      -5.33778475
C        4.06340882       5.10536642      -4.52753693
C        4.02072045       6.46463795      -5.07953738
C        4.31960968       7.55212161      -4.24161372
C        4.25157164       8.86509180      -4.71443737
C        3.86951405       9.09858400      -6.03257076
C        3.56066526       8.03372508      -6.87611076
C        3.63646962       6.71940997      -6.40101119
H        6.91193364       1.16700481      -1.46108401
H        7.99946694       1.48807397      -2.82127770
H        6.26129031       1.67808614      -3.02569310
H        8.03232366       3.32610608      -1.13819821
H        6.33854819       3.59773658      -1.28345792
H        9.62202575       4.04332940      -2.58696000
H       10.36172340       5.44119336      -4.45931707
H        8.69522711       6.37904265      -6.03723955
H        6.34616906       5.93163497      -5.74965245
H        4.14283679       1.35769410      -1.68894230
H        2.72242627      -0.07756337      -0.28285040
H       -0.77050088       2.05402901      -1.63009877
H        0.63745806       3.51232047      -2.99380409
H        2.11572694       4.18786847      -6.38782385
H        1.08632074       4.74394618      -5.04906045
H        1.43820833       3.01387265      -5.28971317
H        4.60105515       7.38599060      -3.20191878
H        4.48962985       9.68845421      -4.04793633
H        3.25736881       8.21372850      -7.90454501
H        3.40259311       5.90413445      -7.07935460
C        3.79079604      10.44955714      -6.52478520
C        3.72486970      11.58099714      -6.93701479
Br       3.61827239      13.41043994      -7.60355517
C       -5.47188500      -5.36701294      -0.38841363
C       -4.74447782      -6.51385670      -1.08197415
C       -5.42989196      -6.92019066      -2.37148739
C       -6.36282195      -7.97933061      -2.24583255
C       -7.12236685      -8.42470864      -3.32296001
C       -6.98365711      -7.80635346      -4.55235147
C       -6.07583660      -6.75505976      -4.70365030
C       -5.26185344      -6.30663477      -3.64024522
N       -4.36061195      -5.20378312      -3.88139367
N       -3.69037509      -4.60238848      -2.87364273
C       -3.29422039      -3.41522085      -3.34963085
C       -2.49441847      -2.51305684      -2.50806767
C       -2.62214288      -2.53954976      -1.11056545
C       -1.82090989      -1.72826972      -0.29916969
C       -0.88139069      -0.88139069      -0.88139069
C       -0.72841083      -0.84770565      -2.26402681
C       -1.52369023      -1.66779807      -3.06999425
C       -3.69867055      -3.26789808      -4.70987485
C       -3.59098854      -2.06024330      -5.56743320
C       -4.04488264      -4.56253554      -5.08889399
C       -3.95626009      -5.20131221      -6.40732347
C       -3.19206172      -6.37171310      -6.54957019
C       -3.04709441      -6.98986713      -7.79413927
C       -3.65939212      -6.42952115      -8.91175555
C       -4.41379999      -5.26441724      -8.79228388
C       -4.56247719      -4.65165043      -7.54276315
H       -4.97539761      -5.11947755       0.55485270
H       -6.50946692      -5.63610086      -0.16325083
H       -5.50099330      -4.46200291      -1.00207334
H       -4.73366041      -7.36984490      -0.39312264
H       -3.68423380      -6.29783745      -1.23767143
H       -6.51349519      -8.45941886      -1.27940110
H       -7.83331039      -9.23585090      -3.19307254
H       -7.58992462      -8.12531406      -5.39627063
H       -6.06318219      -6.28425512      -5.68001917
H       -3.33701799      -3.21124928      -0.64120592
H       -1.93162807      -1.77678132       0.78069608
H        0.01532263      -0.20345904      -2.72549049
H       -1.34473791      -1.65765129      -4.14119342
H       -4.43991593      -1.99709842      -6.25440491
H       -2.66634869      -2.06416164      -6.14881704
H       -3.63062252      -1.14792917      -4.96324246
H       -2.69063996      -6.81096633      -5.68735824
H       -2.45325141      -7.89494647      -7.87782250
H       -4.88898349      -4.82219148      -9.66446733
H       -5.16460675      -3.75065881      -7.47081660
C       -3.50879085      -7.05753333     -10.19881419
C       -3.38266229      -7.58349353     -11.27672581
Br      -3.17872308      -8.43392669     -13.01961773
C       -0.38830995       5.37229991       5.46670170
C       -1.11878779       4.63656449       6.58495638
C       -2.40248415       5.33952782       6.97955804
C       -2.27976785       6.24881807       8.05939919
C       -3.35048922       7.02087123       8.49867505
C       -4.56975405       6.91891796       7.85369003
C       -4.71776896       6.03508628       6.78169142
C       -3.66177078       5.20895031       6.33801235
N       -3.89844024       4.33450221       5.21284629
N       -2.89219810       3.65616750       4.61804071
C       -3.35202845       3.29295640       3.41408724
C       -2.50843499       2.49432602       2.51278198
C       -1.10950673       2.59353885       2.56921251
C       -0.29791406       1.79229961       1.75813563
C       -0.88139069       0.88139069       0.88139069
C       -2.26580994       0.75677606       0.81755730
C       -3.07226931       1.55178276       1.63743048
C       -4.70086534       3.72733306       3.24824507
C       -5.53605197       3.66051241       2.02210066
C       -5.09883479       4.05560981       4.54186757
C       -6.43125647       3.98086170       5.15277760
C       -6.61182888       3.19686456       6.30465157
C       -7.87111127       3.06472125       6.89526830
C       -8.96508314       3.71010897       6.32547670
C       -8.80757468       4.48467098       5.17825544
C       -7.54337758       4.62031814       4.59319506
H        0.54980356       4.86199944       5.22782659
H       -0.14827671       6.39969829       5.76084362
H       -0.98306336       5.43140681       4.55059938
H       -0.44753336       4.59519886       7.45389573
H       -1.29088806       3.58408373       6.34477089
H       -1.32036085       6.37069822       8.56125608
H       -3.22293485       7.71303875       9.32626023
H       -5.40783552       7.53556903       8.16810476
H       -5.68458962       6.05118756       6.29167931
H       -0.63974825       3.28558227       3.26414266
H        0.78272867       1.88043220       1.83000978
H       -2.72879025       0.03518959       0.14964707
H       -4.14635346       1.39451746       1.60271169
H       -6.20485087       4.52408029       1.96248809
H       -6.13541125       2.74778270       1.99613343
H       -4.91308006       3.70593387       1.12278021
H       -5.76856660       2.66978966       6.75060828
H       -7.98449886       2.45504266       7.78647886
H       -9.66125945       4.98577557       4.72860729
H       -7.44164136       5.23843457       3.70600623
C      -10.26714598       3.57299021       6.92500218
C      -11.35762362       3.45815325       7.42710477
Br     -13.12083372       3.27247160       8.23896218
C        1.51444856      -7.02827521       2.68458781
C        1.30814089      -6.84752511       4.18464266
C        2.55630183      -7.19285116       4.97241702
C        2.61818036      -8.52866291       5.44114184
C        3.72667447      -9.02031680       6.12304423
C        4.81408698      -8.19249719       6.33577786
C        4.78321248      -6.87243946       5.87889472
C        3.65749005      -6.33207642       5.21916697
N        3.71700259      -4.96125361       4.76753254
N        2.75997291      -4.43468908       3.97174431
C        3.29934486      -3.34103292       3.41869431
C        2.49922250      -2.50000738       2.51631310
C        1.46169769      -3.05758230       1.75297810
C        0.65567294      -2.25422624       0.93845012
C        0.88139069      -0.88139069       0.88139069
C        1.89608736      -0.30487708       1.63917885
C        2.69188793      -1.10997010       2.45962452
C        4.62911695      -3.14875431       3.89857222
C        5.62803114      -2.14964467       3.44098923
C        4.70029603      -3.98922904       5.00678711
C        5.48556616      -3.84142487       6.23790473
C        4.81941063      -3.81917346       7.47476092
C        5.52325657      -3.63958764       8.66825660
C        6.90414356      -3.46765031       8.62887495
C        7.58128873      -3.47781145       7.41140092
C        6.87382114      -3.66474665       6.21832299
H        0.58827098      -6.80595120       2.14580028
H        1.80445686      -8.05740554       2.44695621
H        2.29869965      -6.37494210       2.29142780
H        0.49014150      -7.51297880       4.49350765
H        0.93471066      -5.85087327       4.43415876
H        1.78741676      -9.20890471       5.25599367
H        3.74575994     -10.05124187       6.46523202
H        5.69803677      -8.57051578       6.84295676
H        5.69227432      -6.30233540       6.03284676
H        1.26060166      -4.12505643       1.80381509
H       -0.14852886      -2.70943049       0.36681167
H        2.06692251       0.76813971       1.61484411
H        3.44081086      -0.62436264       3.07840911
H        6.63907635      -2.56461203       3.48773088
H        5.59118364      -1.24147374       4.04667000
H        5.46414593      -1.88692226       2.39072595
H        3.73642677      -3.93271739       7.51982038
H        4.98591985      -3.62846358       9.61163695
H        8.65908163      -3.33892549       7.37763519
H        7.42348451      -3.68082883       5.28176882
C        7.63522091      -3.27541194       9.85450553
C        8.24749818      -3.11441231      10.88097115
Br       9.23749875      -2.85408952      12.54067923
