189
Properties=species:S:1:pos:R:3 pbc="F F F"
C        0.00000000       0.00000000       0.00000000
C        0.88068733       0.88068733      -0.88068733
C        1.99318968       1.51096809      -0.33404493
C        2.81401544       2.29290227      -1.15196467
C        2.52980398       2.44705382      -2.52140015
C        1.38480562       1.84081468      -3.04449888
C        0.56694918       1.04643870      -2.23063098
C        3.45611071       3.22465668      -3.34735796
N        3.89828103       4.39404417      -2.90535566
N        4.83832798       4.79517700      -3.78549668
C        5.37826794       6.13965111      -3.54947356
C        6.45315106       6.20709085      -2.47490320
C        6.28237805       5.60245737      -1.21849215
C        7.25391450       5.71539110      -0.22347678
C        8.41013856       6.45390113      -0.45698504
C        8.59449845       7.10061418      -1.68351005
C        9.83875649       7.90043947      -1.93941816
C        7.61407937       6.97405421      -2.68192879
C        5.02366692       3.90517161      -4.84325644
C        6.04038795       4.01141887      -5.93487278
C        7.22460037       4.75385343      -5.80309775
C        8.17698861       4.83728511      -6.83157945
C        8.00068620       4.11388217      -8.00235437
Br       9.30036933       4.18049083      -9.37035812
C        6.86774278       3.33036816      -8.15581405
C        5.89269069       3.30752920      -7.14052379
C        4.05572237       2.90503181      -4.60626432
C        3.74225478       1.69945701      -5.43148083
H        2.23859275       1.39988604       0.71919912
H        3.68716059       2.77570797      -0.72176705
H        1.11466080       1.97498008      -4.08972476
H       -0.30725794       0.56301155      -2.65795625
H        4.53554438       6.76821226      -3.23467162
H        5.71551958       6.54641470      -4.50656435
H        5.38014530       5.03888221      -0.99069989
H        7.10272441       5.23270690       0.73786228
H        9.15866643       6.53181484       0.32924380
H       10.48918142       7.36765080      -2.63890108
H       10.39873764       8.07580506      -1.01549885
H        9.58182900       8.87926859      -2.35793899
H        7.76166741       7.48897991      -3.62886380
H        7.46750633       5.26968760      -4.88750121
H        9.06413416       5.45084444      -6.69218539
H        6.72140255       2.73204558      -9.05588898
H        5.02072862       2.69902801      -7.34483892
H        3.23938069       2.00515706      -6.35015306
H        4.64802382       1.14344211      -5.67316314
H        3.07690511       1.00581844      -4.92726986
C       -0.88068733      -0.88068733      -0.88068733
C       -0.43576270      -2.14237053      -1.26006946
C       -1.25902407      -2.95746229      -2.04239602
C       -2.53281416      -2.51790504      -2.44753875
C       -2.94632649      -1.23141986      -2.09237283
C       -2.12918479      -0.41672209      -1.29811199
C       -3.38114694      -3.43439826      -3.21258015
N       -2.85978261      -4.11115426      -4.22674398
N       -3.81437099      -4.97441126      -4.63021941
C       -3.48612713      -5.74643478      -5.83483070
C       -2.59527362      -6.95427762      -5.58559388
C       -1.42147847      -6.86247373      -4.81937537
C       -0.58598154      -7.96560149      -4.64119935
C       -0.89635244      -9.18122831      -5.24344399
C       -2.03734517      -9.29700869      -6.04426883
C       -2.37517696     -10.60536665      -6.69807051
C       -2.87662063      -8.18258343      -6.21085830
C       -4.99899507      -4.87190288      -3.90119702
C       -6.21253705      -5.73499078      -4.03915177
C       -6.16948857      -7.02818613      -4.58387686
C       -7.31423529      -7.83332074      -4.69829713
C       -8.52980754      -7.38799256      -4.19912265
Br     -10.06366176      -8.48410068      -4.30345584
C       -8.60772036      -6.13552928      -3.61067535
C       -7.46408217      -5.31598402      -3.56067749
C       -4.75039137      -3.79968541      -3.01694171
C       -5.67178321      -3.19110891      -2.01030050
H        0.54070924      -2.50784332      -0.95214559
H       -0.91029569      -3.94597978      -2.32836014
H       -3.90792415      -0.84647181      -2.42496967
H       -2.47502062       0.57254227      -1.01123151
H       -2.96011079      -5.06390466      -6.51441280
H       -4.42023264      -6.01051964      -6.33774636
H       -1.13298062      -5.92207499      -4.35467178
H        0.31265710      -7.87212357      -4.03810256
H       -0.23468918     -10.03236980      -5.09417849
H       -3.23416473     -11.06268763      -6.19888093
H       -1.53589764     -11.30612610      -6.64801781
H       -2.61122221     -10.45149773      -7.75631664
H       -3.75622695      -8.27957336      -6.84371081
H       -5.24218060      -7.47132282      -4.91119171
H       -7.23441377      -8.81667038      -5.15607984
H       -9.54625726      -5.77595537      -3.18712449
H       -7.60911149      -4.33947233      -3.11601174
H       -6.44964204      -2.62272450      -2.52232427
H       -6.12636754      -3.95666097      -1.38160056
H       -5.16788842      -2.49943298      -1.34267201
C       -0.88068733       0.88068733       0.88068733
C       -0.84749168       0.72821884       2.26249218
C       -1.63407990       1.55791791       3.06688458
C       -2.45596961       2.54680264       2.49548570
C       -2.50854185       2.65788085       1.10369649
C       -1.71234867       1.83655977       0.29511043
C       -3.21171731       3.43144077       3.38496727
N       -3.87708103       2.91264945       4.40795038
N       -4.33397869       3.95901652       5.12600646
C       -5.21068953       3.60712840       6.24957468
C       -4.47708773       3.15476178       7.50329560
C       -3.45640588       2.19075928       7.45616241
C       -2.82681221       1.74660786       8.61936231
C       -3.21919533       2.24291328       9.85891613
C       -4.25828523       3.17537103       9.94496643
C       -4.68690542       3.71189686      11.27981184
C       -4.88043672       3.62243023       8.76719541
C       -3.99599272       5.19682462       4.57927763
C       -4.27469905       6.54235267       5.16962787
C       -4.49994655       6.74050662       6.54109838
C       -4.75002305       8.01061653       7.08521358
C       -4.70878809       9.13492191       6.27321275
Br      -4.99424961      10.85186552       7.00510315
C       -4.44343325       8.98989038       4.92060137
C       -4.25715352       7.70322538       4.38036478
C       -3.32555176       4.85747729       3.38398943
C       -2.76229172       5.76863414       2.34226676
H       -0.21388877      -0.02260587       2.72799677
H       -1.59745359       1.44072439       4.14645763
H       -3.16534784       3.38419212       0.62982568
H       -1.74748179       1.95102930      -0.78480123
H       -5.84890603       2.78281354       5.90670870
H       -5.88223436       4.44920664       6.43705764
H       -3.14072893       1.76116428       6.50783419
H       -2.03483667       1.00572909       8.55700327
H       -2.71769983       1.88675118      10.75678646
H       -4.35678874       4.74873214      11.39021242
H       -4.26173850       3.12691475      12.10138831
H       -5.77694356       3.66699826      11.37509476
H       -5.69437492       4.34010950       8.84502671
H       -4.45931239       5.92246119       7.24292156
H       -4.94929200       8.10788433       8.14998766
H       -4.37914779       9.86173461       4.26845472
H       -4.08658999       7.66622648       3.31177909
H       -3.57600971       6.23433686       1.78434423
H       -2.13466814       6.53787552       2.79208541
H       -2.14457485       5.24803525       1.61738331
C        0.88068733      -0.88068733       0.88068733
C        0.29390281      -1.77387805       1.77042184
C        1.10507987      -2.59997329       2.55382922
C        2.50711312      -2.54062649       2.45051835
C        3.08002937      -1.60810851       1.58198131
C        2.27017248      -0.78746246       0.78638393
C        3.30967941      -3.47143156       3.24701438
N        3.01888571      -3.65048147       4.52831368
N        3.80612033      -4.66010284       4.95277849
C        3.73196758      -4.94441036       6.39101467
C        2.53827463      -5.79204103       6.80482946
C        1.23484615      -5.49534719       6.37313423
C        0.14191321      -6.24958996       6.80127920
C        0.32687320      -7.30606591       7.68808562
C        1.60657650      -7.60448881       8.16755737
C        1.81100807      -8.74145863       9.12614742
C        2.70175194      -6.84422290       7.72408752
C        4.65193438      -5.15823140       3.96192919
C        5.58187363      -6.32337934       4.08142663
C        5.40786064      -7.34245057       5.03124034
C        6.28191413      -8.43730656       5.12663247
C        7.32067291      -8.57854058       4.21770925
Br       8.47060047     -10.07343463       4.30718317
C        7.50096738      -7.61927265       3.23368496
C        6.65374613      -6.49566926       3.19132829
C        4.38972377      -4.32325955       2.85403517
C        5.02799965      -4.34204850       1.50314447
H       -0.78708556      -1.84450682       1.86185840
H        0.64132656      -3.30255125       3.24075779
H        4.16093895      -1.50856424       1.50986244
H        2.73117917      -0.08343957       0.09909111
H        3.66105197      -3.97564312       6.90173318
H        4.68465171      -5.38003529       6.70381163
H        1.04838582      -4.66106943       5.70027215
H       -0.85586770      -6.00558094       6.44785580
H       -0.53586723      -7.88509064       8.01201406
H        2.30167480      -9.57630725       8.61775125
H        0.85937159      -9.09835728       9.53231269
H        2.42815994      -8.41935795       9.97151869
H        3.69170400      -7.07740932       8.11039780
H        4.57114871      -7.34163165       5.71191478
H        6.12202782      -9.18507946       5.90005671
H        8.29375791      -7.72360697       2.49197223
H        6.87544601      -5.77330702       2.41584252
H        6.05040916      -3.96832337       1.57595827
H        5.03110782      -5.34856990       1.08495135
H        4.51451287      -3.70916166       0.78631888
