161
Properties=species:S:1:pos:R:3 pbc="F F F"
C        0.00000000       0.00000000       0.00000000
C       11.58515431       1.60829261      -2.68252600
C       10.45142069       2.21647903      -1.87998259
O        9.28416321       2.29367818      -2.71018967
C        8.43899283       1.21799326      -2.68130052
O        8.58704519       0.22816553      -1.98024402
C        7.39081219       1.41296855      -3.73446316
N        6.15291636       0.71042045      -3.45597192
N        5.17468675       1.45200980      -2.89912709
C        4.10694863       0.64727084      -2.83665895
C        2.86048148       1.15182170      -2.25472298
C        2.49295765       2.49189083      -2.46752355
C        1.33006247       3.01836868      -1.89887131
C        0.52017928       2.20987730      -1.10621103
C        0.88203850       0.88203850      -0.88203850
C        2.04708828       0.35187335      -1.44534340
C        4.41663250      -0.61700913      -3.41139482
Cl       3.32369404      -1.90634288      -3.64791934
C        5.75993859      -0.57529138      -3.77495859
C        6.61593998      -1.64403776      -4.31870225
C        6.58106465      -2.92273315      -3.73380071
C        7.36346272      -3.97226270      -4.22766382
C        8.22350368      -3.75244739      -5.29837847
C        8.26900903      -2.49297342      -5.88601748
Br       9.45501863      -2.17828628      -7.32628064
C        7.45377114      -1.45392190      -5.42333867
H       12.50826901       1.57986886      -2.09782328
H       11.76201092       2.18870144      -3.59478764
H       11.33521027       0.59062806      -2.99945685
H       10.70963383       3.24041415      -1.59016365
H       10.25957777       1.65498254      -0.95935998
H        7.78363305       1.11258682      -4.70378173
H        7.14302141       2.48035844      -3.80388682
H        3.12376316       3.13976467      -3.07415660
H        1.06372109       4.05681710      -2.06997208
H       -0.38248523       2.62215817      -0.66123451
H        2.32187699      -0.67591930      -1.22632168
H        5.93649139      -3.12233993      -2.87995220
H        7.30241935      -4.95647880      -3.76860598
H        8.84337373      -4.56610443      -5.66670228
H        7.47061954      -0.50884367      -5.95524060
C       -8.27060655      -8.63355370       1.02818732
C       -6.81113177      -8.41585467       0.67910413
O       -6.71318553      -7.32619174      -0.24865379
C       -6.54710989      -6.07803776       0.28686103
O       -6.44006371      -5.83499197       1.47960095
C       -6.64547738      -5.07265720      -0.82010931
N       -5.94161825      -3.83534220      -0.54234829
N       -4.71157989      -3.73060153      -1.08364222
C       -4.30101076      -2.48823461      -0.80163305
C       -2.97230359      -2.05395457      -1.24076800
C       -2.47450045      -2.50066210      -2.47720948
C       -1.19758634      -2.13672248      -2.91299363
C       -0.39998231      -1.32201588      -2.11426941
C       -0.88203850      -0.88203850      -0.88203850
C       -2.15747380      -1.24715429      -0.43967694
C       -5.32229329      -1.78534721      -0.10337769
Cl      -5.27673326      -0.14138048       0.35284325
C       -6.36753575      -2.68406240       0.09199235
C       -7.62316970      -2.51029508       0.84286031
C       -7.58905049      -1.92403598       2.12095426
C       -8.75821561      -1.72348720       2.86283895
C       -9.98376484      -2.13795850       2.35228859
C      -10.03245708      -2.71987570       1.09027968
Br     -11.69190369      -3.31011738       0.39900808
C       -8.87046789      -2.87976344       0.32704343
H       -8.39051209      -9.49095417       1.69550511
H       -8.85904303      -8.80685382       0.12039685
H       -8.69132160      -7.74636528       1.51239170
H       -6.41327340      -9.30396406       0.17702583
H       -6.20150313      -8.24533571       1.57291855
H       -7.69166153      -4.86890986      -1.03943022
H       -6.20140613      -5.49448806      -1.73137247
H       -3.08184079      -3.14942514      -3.10641850
H       -0.82726811      -2.49450607      -3.86873608
H        0.59501556      -1.04281716      -2.45310586
H       -2.49383564      -0.91758252       0.53913880
H       -6.64396758      -1.60973052       2.55959445
H       -8.70528978      -1.24985489       3.84059814
H      -10.88724113      -1.99708810       2.94035765
H       -8.96408401      -3.27383454      -0.67909791
C       -2.22674509       2.03455925      11.61466858
C       -2.80580568       1.35060797      10.39146866
O       -2.74868086       2.25767951       9.28167069
C       -1.62140218       2.20925747       8.50762696
O       -0.69139242       1.43355704       8.67050527
C       -1.67536262       3.33873123       7.52415004
N       -0.90857565       3.09285909       6.31787399
N       -1.61532330       2.65268038       5.25781996
C       -0.74460434       2.60385364       4.24242044
C       -1.19849949       2.13964904       2.92887764
C       -2.49353524       2.46756354       2.49127326
C       -2.97416376       2.01270721       1.26043149
C       -2.16455586       1.22006599       0.45164575
C       -0.88203850       0.88203850       0.88203850
C       -0.39823238       1.33117829       2.11489436
C        0.52973704       3.06891321       4.67184202
Cl       1.90389979       3.28596605       3.68320424
C        0.41904913       3.34713175       6.03152318
C        1.45907413       3.75959647       6.99008213
C        2.69675945       3.09141358       6.99747807
C        3.71951123       3.46028996       7.87808512
C        3.51041959       4.48593354       8.79392081
C        2.29131365       5.15483146       8.79853527
Br       1.98912808       6.53389954      10.05824153
C        1.28326710       4.81839501       7.88806000
H       -2.29977210       1.39099731      12.49519174
H       -2.75794376       2.97135517      11.81620107
H       -1.17596297       2.29604088      11.45329133
H       -3.86165257       1.11601638      10.56254269
H       -2.29294094       0.40775813      10.17322122
H       -1.34091036       4.25769415       8.00139709
H       -2.71643243       3.49739430       7.21343994
H       -3.14289120       3.07548100       3.11931222
H       -3.97858783       2.27179450       0.94012793
H       -2.54146190       0.86368564      -0.50424008
H        0.59191194       1.02457389       2.43961742
H        2.88486116       2.26917070       6.30979411
H        4.67394814       2.93937446       7.84912021
H        4.30146169       4.75656722       9.48886605
H        0.37553572       5.41198078       7.88057141
C       -1.03040840      -8.56215186       8.34422946
C       -0.72044798      -7.08675849       8.18157179
O        0.23623864      -6.92707737       7.12471505
C       -0.26631595      -6.73850826       5.86609430
O       -1.45393894      -6.65995837       5.58943530
C        0.87297576      -6.77217464       4.89309351
N        0.61089361      -6.03889438       3.66952075
N        1.11661033      -4.79043956       3.61877376
C        0.85955102      -4.35014538       2.38118202
C        1.27007047      -2.99595204       2.00100365
C        2.47641843      -2.47523184       2.50072176
C        2.88307976      -1.17507001       2.18915269
C        2.08487206      -0.37696824       1.37442730
C        0.88203850      -0.88203850       0.88203850
C        0.46872452      -2.18095770       1.19462280
C        0.21487433      -5.36967179       1.62647206
Cl      -0.19278559      -5.28681448      -0.02875841
C        0.02508378      -6.44775261       2.48676941
C       -0.68082080      -7.71944024       2.25198502
C       -1.94110694      -7.70565528       1.62758387
C       -2.63991672      -8.88985209       1.36892848
C       -2.10425009     -10.11174507       1.76193978
C       -0.85945016     -10.14043926       2.38106399
Br      -0.13504498     -11.79583838       2.94221958
C       -0.13786030      -8.96150447       2.59954374
H       -1.71921623      -8.72870389       9.17647350
H       -0.11040512      -9.12806158       8.52784354
H       -1.47434413      -8.96949474       7.43014457
H       -0.25797251      -6.70174078       9.09644336
H       -1.62723073      -6.49934169       8.00180934
H        1.13074485      -7.80443561       4.66482114
H        1.75686990      -6.31416372       5.35623304
H        3.10435846      -3.08320038       3.15012559
H        3.81563395      -0.78741193       2.58746439
H        2.40088377       0.63598612       1.13600982
H       -0.48878691      -2.53626342       0.82480286
H       -2.39923359      -6.76491122       1.32842603
H       -3.60412872      -8.85172622       0.86694904
H       -2.65944412     -11.02772079       1.57569490
H        0.85836978      -9.03695448       3.02169221
