190
Properties=species:S:1:pos:R:3 pbc="F F F"
C       12.49505834       2.51819664      -3.59243003
C       11.36132471       3.12638305      -2.78988661
O       10.19406723       3.20358221      -3.62009369
C        9.34889686       2.12789728      -3.59120454
O        9.49694921       1.13806955      -2.89014804
C        8.30071621       2.32287258      -4.64436718
N        7.06282039       1.62032448      -4.36587595
N        6.08459077       2.36191383      -3.80903111
C        5.01685266       1.55717487      -3.74656297
C        3.77038550       2.06172573      -3.16462701
C        3.40286168       3.40179486      -3.37742758
C        2.23996649       3.92827271      -2.80877533
C        1.43008331       3.11978132      -2.01611505
C        1.79194253       1.79194253      -1.79194253
C        2.95699230       1.26177737      -2.35524743
C        5.32653652       0.29289489      -4.32129884
Cl       4.23359806      -0.99643886      -4.55782336
C        6.66984261       0.33461265      -4.68486261
C        7.52584401      -0.73413374      -5.22860628
C        7.49096868      -2.01282913      -4.64370473
C        8.27336675      -3.06235867      -5.13756785
C        9.13340770      -2.84254337      -6.20828250
C        9.17891305      -1.58306940      -6.79592151
C        8.36367517      -0.54401788      -6.33324269
H       13.41817304       2.48977289      -3.00772730
H       12.67191494       3.09860546      -4.50469167
H       12.24511430       1.50053208      -3.90936087
H       11.61953786       4.15031817      -2.50006767
H       11.16948180       2.56488657      -1.86926400
H        8.69353707       2.02249085      -5.61368575
H        8.05292543       3.39026246      -4.71379085
H        4.03366718       4.04966869      -3.98406062
H        1.97362511       4.96672112      -2.97987611
H        0.52741880       3.53206220      -1.57113854
H        3.23178102       0.23398472      -2.13622570
H        6.84639541      -2.21243591      -3.78985622
H        8.21232337      -4.04657478      -4.67851001
H        9.75327776      -3.65620041      -6.57660630
H        8.38052356       0.40106035      -6.86514463
C       10.08154125      -1.34357261      -7.89205272
C       10.83749236      -1.14299406      -8.81006261
Br      12.05980138      -0.81867549     -10.29440695
C      -12.46531546      -2.31613170      -3.82423784
C      -11.36461574      -2.93110812      -2.98187051
O      -10.18087897      -3.05417144      -3.78269272
C       -9.31175997      -1.99762132      -3.75861739
O       -9.45263597      -0.98862001      -3.08391083
C       -8.24470533      -2.24088098      -4.78236966
N       -6.99744142      -1.56039503      -4.49118436
N       -6.04967800      -2.31088689      -3.89497083
C       -4.96518439      -1.52942283      -3.82598328
C       -3.74437580      -2.04852293      -3.20383951
C       -3.40341574      -3.40120302      -3.37746535
C       -2.26634315      -3.94062568      -2.77004570
C       -1.45610037      -3.13253471      -1.97734460
C       -1.79194253      -1.79194253      -1.79194253
C       -2.93120440      -1.24866093      -2.39415178
C       -5.23217512      -0.27215123      -4.43640390
Cl      -4.10440208       0.98611296      -4.67669344
C       -6.56746521      -0.29173956      -4.83011310
C       -7.38574341       0.78325888      -5.41783202
C       -7.33441672       2.07410554      -4.86153309
C       -8.08071358       3.12938383      -5.39724617
C       -8.92104743       2.90432199      -6.48242140
C       -8.98248849       1.63286476      -7.04214143
C       -8.20241539       0.58658512      -6.53706971
H      -13.40058703      -2.25309311      -3.26199308
H      -12.63483274      -2.91345527      -4.72692405
H      -12.18458717      -1.31207782      -4.15834226
H      -11.65313770      -3.94187251      -2.67491349
H      -11.18075090      -2.35283323      -2.07004823
H       -8.60825856      -1.95429452      -5.76716059
H       -8.02032709      -3.31496170      -4.82168994
H       -4.03516899      -4.04850479      -3.98372272
H       -2.02043576      -4.98857075      -2.91121583
H       -0.57364557      -3.55477841      -1.50219555
H       -3.18689357      -0.21005754      -2.20504033
H       -6.70497083       2.27882270      -3.99766760
H       -8.00722728       4.12238067      -4.95941199
H       -9.51325377       3.72307758      -6.88350746
H       -8.22916055      -0.36999720      -7.04757079
C       -9.86526689       1.38850922      -8.15326368
C      -10.60459381       1.18386146      -9.08382857
Br     -11.80002289       0.85296335     -10.58847329
C       -0.10836030       7.78474668      10.71257802
C       -0.60387339       6.43077962      10.24294137
O       -1.36847978       6.60714134       9.04212201
C       -0.68279551       6.52427362       7.86092955
O        0.50937640       6.27682021       7.75772300
C       -1.61067115       6.90863384       6.74865099
N       -1.24749943       6.33408949       5.46743189
N       -1.91901103       5.21888459       5.11764009
C       -1.51384831       4.93216574       3.87457645
C       -2.04975172       3.74698089       3.20000563
C       -3.39086060       3.38148938       3.40973413
C       -3.92713726       2.23774712       2.81213016
C       -3.12595129       1.44214323       1.99788516
C       -1.79194253       1.79194253       1.79194253
C       -1.24956926       2.93313009       2.39131776
C       -0.59747061       5.92186597       3.42139367
Cl       0.08310181       6.01882392       1.85926046
C       -0.40403845       6.80554360       4.47973582
C        0.51679319       7.95066196       4.58644777
C        1.85176741       7.80578295       4.16782874
C        2.75673688       8.87074088       4.23457192
C        2.35055147      10.09506436       4.75463395
C        1.03383456      10.25245785       5.17314188
C        0.11472301       9.20278304       5.06483994
H        0.43717161       7.69711198      11.65573285
H       -0.94991292       8.47203987      10.85325928
H        0.54877816       8.23949375       9.96429167
H       -1.27579467       6.00093987      10.99318917
H        0.22088098       5.72436787      10.10014548
H       -1.66401328       7.99285004       6.67285035
H       -2.62227885       6.55181015       6.98288974
H       -4.02567367       3.98676605       4.05495678
H       -4.96376801       1.96785290       2.98860143
H       -3.54374469       0.55025362       1.53662123
H       -0.19868631       3.16278608       2.24051905
H        2.20831455       6.85445110       3.77767918
H        3.77826702       8.73676279       3.88576284
H        3.06232097      10.91408573       4.82191890
H       -0.91796314       9.39087152       5.33789389
C        0.61207490      11.51134051       5.73075574
C        0.25885118      12.56565475       6.19775735
Br      -0.31228170      14.27039169       6.95285945
C        1.14621302      -5.44013378      12.01933820
C        1.76337003      -4.35252813      11.16169622
O        2.17890538      -4.92504095       9.91379680
C        1.26416676      -4.90747820       8.89635372
O        0.14920092      -4.41205350       8.96391239
C        1.81709967      -5.69996379       7.75089252
N        1.27897265      -5.30754330       6.46250486
N        2.04721286      -4.46635599       5.74196687
C        1.42389919      -4.33153117       4.56516013
C        1.99997732      -3.45286689       3.54389403
C        3.39703318      -3.37837651       3.40667441
C        3.98368063      -2.52488150       2.46845240
C        3.17839311      -1.73147300       1.65611357
C        1.79194253      -1.79194253       1.79194253
C        1.20037292      -2.64124236       2.73240182
C        0.25788769      -5.14652477       4.53631779
Cl      -0.77481038      -5.37324156       3.19655138
C        0.15486672      -5.74556483       5.78888633
C       -0.91367040      -6.60264231       6.33134463
C       -2.25787450      -6.23091238       6.14880640
C       -3.30557162      -7.02273301       6.63141453
C       -3.02639495      -8.18801809       7.33752370
C       -1.70198390      -8.56743866       7.52631041
C       -0.65338233      -7.80130843       7.00497388
H        0.86276349      -5.05187159      13.00103815
H        1.85286308      -6.26613983      12.15620916
H        0.25896780      -5.86082353      11.53521592
H        2.66049908      -3.95868739      11.65073724
H        1.07584085      -3.51260812      11.01518340
H        1.64666424      -6.76098603       7.92206340
H        2.90392238      -5.55209924       7.70095712
H        4.03982660      -3.98305781       4.04451209
H        5.06454410      -2.47664406       2.37903417
H        3.63659377      -1.06493424       0.92909152
H        0.11947182      -2.64294028       2.83957934
H       -2.51058648      -5.31326500       5.62113721
H       -4.33648244      -6.72157914       6.45916190
H       -3.84347407      -8.79029136       7.72686636
H        0.36029767      -8.17091636       7.11551451
C       -1.40565950      -9.76228210       8.27339876
C       -1.15748782     -10.76296347       8.89908526
Br      -0.75621520     -12.38098063       9.91076741
C       -0.00445707       0.01189536      -1.78238275
H       -0.66409135       0.67374010      -2.43557963
H        0.65740317      -0.63156657      -2.45157240
C       -0.90989263      -0.90692880      -0.91072765
C        0.90977584       0.90977584      -0.90977584
C       -0.00465871       1.77757030       0.00794375
H       -0.66225468       2.44313916      -0.64384735
H        0.64322798       2.43503045       0.67728295
C       -1.78241447       0.00034974      -0.00472694
H       -2.45427497      -0.65498947       0.64260836
H       -2.43311707       0.67328779      -0.65473579
C       -0.91132561       0.90220522       0.91563759
C       -0.01476271      -0.02253852       1.78660255
H       -0.67934791      -0.69751639       2.42135241
H        0.63392994       0.61504881       2.47327442
C        0.01484550      -1.77751727      -0.01636693
H        0.67870853      -2.42144646      -0.68295456
H       -0.62264859      -2.45592969       0.64226336
C        1.78714474       0.01002794       0.00389507
H        2.44202412       0.67113390       0.66197326
H        2.45385902      -0.65136977      -0.64189061
C        0.91606151      -0.90478549       0.90901405
