185
Properties=species:S:1:pos:R:3 pbc="F F F"
C        0.00000000       0.00000000       0.00000000
C        0.88139033       0.88139033      -0.88139033
C        1.85441329       1.68827789      -0.30086604
C        2.67502757       2.47418939      -1.11562634
C        2.53332364       2.46782848      -2.51383918
C        1.51327773       1.68537953      -3.07214513
C        0.70332369       0.87948685      -2.26254032
C        3.43743028       3.28676921      -3.33563370
N        3.86700690       4.46076446      -2.85614803
N        4.73113242       4.93862308      -3.77158952
C        5.30656044       6.25983075      -3.50682753
C        6.77642787       6.33176622      -3.14448470
C        7.23345144       7.49185176      -2.48596739
C        8.59396516       7.69731047      -2.22928144
C        9.52829665       6.75579904      -2.64499419
C        9.08943946       5.60336749      -3.27968490
F        9.98443292       4.69553224      -3.69350235
C        7.73402845       5.37932210      -3.51089773
C        4.83662924       4.13324083      -4.89090746
C        5.76024108       4.35890972      -6.01695342
C        6.67551439       3.35032055      -6.36869218
C        7.64504106       3.56414898      -7.34970841
C        7.71203598       4.79547831      -7.99021777
C        6.79528549       5.79815378      -7.68252501
C        5.81126305       5.57208231      -6.71133515
C        4.03070102       3.02453257      -4.61371223
C        3.90085482       1.81012584      -5.46770156
H        1.98743947       1.71562853       0.77718426
H        3.43423729       3.10189707      -0.65069331
H        1.31521054       1.70270608      -4.13862677
H       -0.06492561       0.26219854      -2.71989795
H        4.72252633       6.68355523      -2.67795655
H        5.10315414       6.88872905      -4.37707918
H        6.52465095       8.25727676      -2.17116628
H        8.92166467       8.59956089      -1.71771824
H       10.58997958       6.90826178      -2.48073697
H        7.46890187       4.44669866      -3.99081770
H        6.67546951       2.39759283      -5.84432209
H        8.35366573       2.77273046      -7.58401765
H        6.84356883       6.76209275      -8.18166775
H        5.09974555       6.36555378      -6.50381542
H        3.85575871       2.08351048      -6.52718159
H        4.76203771       1.15182249      -5.31545088
H        3.01014868       1.22110070      -5.25658985
C        8.74137824       5.03716461      -8.96778733
C        9.60345238       5.23957689      -9.78650184
Br      10.99735336       5.56686041     -11.11029394
C       -0.88139033      -0.88139033      -0.88139033
C       -0.36663314      -1.42165699      -2.05526709
C       -1.17131711      -2.24841809      -2.84510810
C       -2.49545241      -2.54236875      -2.47717014
C       -3.00778807      -1.94628412      -1.31673021
C       -2.19938762      -1.13550894      -0.51045430
C       -3.29759584      -3.44097532      -3.32126203
N       -3.11158138      -3.42523352      -4.64710450
N       -3.90616161      -4.39306563      -5.14211778
C       -3.93013617      -4.54373064      -6.59935190
C       -3.28119148      -5.77755473      -7.19393258
C       -2.91904635      -5.73614262      -8.55608162
C       -2.43327402      -6.87032124      -9.21696180
C       -2.31942528      -8.07566069      -8.53400391
C       -2.65769714      -8.12491598      -7.18987874
F       -2.56127582      -9.28559694      -6.52659475
C       -3.11310425      -6.99198332      -6.51916071
C       -4.67374735      -5.01361144      -4.17341874
C       -5.57321091      -6.15784906      -4.40504426
C       -5.38419649      -7.34148202      -3.66884861
C       -6.13540214      -8.48696625      -3.93653006
C       -7.08580662      -8.46197578      -4.94994966
C       -7.31412085      -7.29167024      -5.67017320
C       -6.57160640      -6.13854491      -5.38452920
C       -4.26530602      -4.43697701      -2.96666280
C       -4.71718422      -4.85273529      -1.60876271
H        0.65292644      -1.21188531      -2.36692487
H       -0.75802669      -2.66676580      -3.76203518
H       -4.04502389      -2.08217367      -1.02934583
H       -2.61088864      -0.70412404       0.39784181
H       -3.42488050      -3.65551342      -7.00364419
H       -4.97231168      -4.47564687      -6.92100382
H       -3.02144288      -4.81024162      -9.12140948
H       -2.15850135      -6.81261904     -10.26782342
H       -1.97132175      -8.97343936      -9.03421723
H       -3.33511513      -7.10492753      -5.46637558
H       -4.61037878      -7.40001902      -2.90698663
H       -5.95069406      -9.39425078      -3.36546901
H       -8.05698347      -7.26756485      -6.46278101
H       -6.78238418      -5.23623153      -5.95049905
H       -5.79060563      -5.06960137      -1.60624378
H       -4.18031533      -5.75368040      -1.29531535
H       -4.54668412      -4.09907001      -0.84208509
C       -7.82861121      -9.65540305      -5.26231591
C       -8.45071006     -10.65489840      -5.52392265
Br      -9.45659128     -12.27099783      -5.94691861
C       -0.88139033       0.88139033       0.88139033
C       -0.47526598       1.19369655       2.17459469
C       -1.27511279       2.02190127       2.96782924
C       -2.48705194       2.54379448       2.48414487
C       -2.89961421       2.17466051       1.19652768
C       -2.09180888       1.36366466       0.38987731
C       -3.28319407       3.43548293       3.34115619
N       -3.29032549       3.22947926       4.66411464
N       -4.02100230       4.23131259       5.18903013
C       -4.23238240       4.20222745       6.63860887
C       -3.52649510       5.24842177       7.47776193
C       -3.36896625       4.98775256       8.85455178
C       -2.84507019       5.95099326       9.72449362
C       -2.48721750       7.20323845       9.23863393
C       -2.62288236       7.46599586       7.88361364
F       -2.29046379       8.67441364       7.40859008
C       -3.11540740       6.50089436       7.00794653
C       -4.56076353       5.06949703       4.23051697
C       -5.33528244       6.29206258       4.50875921
C       -4.89875120       7.51893072       3.97684520
C       -5.53261585       8.71724737       4.30903523
C       -6.61273693       8.70188050       5.18311463
C       -7.08395216       7.49564837       5.69636375
C       -6.45702436       6.29328307       5.34437309
C       -4.06002838       4.59472633       3.01419112
C       -4.25993228       5.23524248       1.68350746
H        0.45593839       0.80460639       2.57721575
H       -0.94733009       2.26066392       3.97883367
H       -3.86076772       2.49068742       0.80508825
H       -2.42067163       1.11077538      -0.61427614
H       -3.90343423       3.20821928       6.97238460
H       -5.30994719       4.24320577       6.81580940
H       -3.66429900       4.02289703       9.26589794
H       -2.73126031       5.72525381      10.78242968
H       -2.10503834       7.97370671       9.90023328
H       -3.17028474       6.77365062       5.96248287
H       -4.02355361       7.56111581       3.33271501
H       -5.15793513       9.65286539       3.89961333
H       -7.92884063       7.47908596       6.37940274
H       -6.85597197       5.36687195       5.74627084
H       -5.28696287       5.60065058       1.57883732
H       -3.57667181       6.08283145       1.56980782
H       -4.07716911       4.56582360       0.84484651
C       -7.23874551       9.94055967       5.56702500
C       -7.76302769      10.97795347       5.88854994
Br      -8.61074764      12.65533152       6.40842857
C        0.88139033      -0.88139033       0.88139033
C        2.13953038      -1.27046729       0.43355955
C        2.95182617      -2.05693882       1.25607831
C        2.51942094      -2.46656011       2.52901025
C        1.22867200      -2.10428286       2.93784754
C        0.41976303      -1.29823205       2.12735577
C        3.41758536      -3.26814685       3.37410098
N        4.24598499      -4.14494357       2.79299084
N        4.99271027      -4.66114058       3.78749418
C        5.95266643      -5.70404828       3.41650401
C        7.42747723      -5.35851645       3.46668512
C        8.31590491      -6.16708050       2.72828518
C        9.70251018      -5.99912441       2.81892249
C       10.23025569      -5.03215511       3.66667909
C        9.36604141      -4.22032862       4.38612182
F        9.86659895      -3.29278291       5.21408565
C        7.98452191      -4.36275396       4.27697241
C        4.63118733      -4.19225857       5.03733163
C        5.31930058      -4.51744151       6.29936214
C        5.82431910      -3.47402167       7.09618634
C        6.58309941      -3.73835009       8.23744895
C        6.84886866      -5.05483384       8.59402957
C        6.33145351      -6.10516577       7.83934501
C        5.55361769      -5.83515732       6.70590551
C        3.62917973      -3.24825373       4.79151237
C        2.99082761      -2.37296059       5.81489402
H        2.50139135      -0.97061836      -0.54612597
H        3.93553508      -2.35546301       0.89582958
H        0.82062273      -2.45667580       3.87924486
H       -0.56793370      -1.00931201       2.47579257
H        5.69855975      -5.99716566       2.38831270
H        5.74998238      -6.57675612       4.04222387
H        7.92953373      -6.94876879       2.07479147
H       10.36734319      -6.63405534       2.23754527
H       11.30245208      -4.90365117       3.77287508
H        7.37671072      -3.67730212       4.85240539
H        5.67336161      -2.43644119       6.80758162
H        6.97928599      -2.91014722       8.82098063
H        6.53609179      -7.13602673       8.11521081
H        5.14957908      -6.67328493       6.14625074
H        2.79823877      -2.93086026       6.73735175
H        3.64904698      -1.53048933       6.04977478
H        2.03852049      -1.95236168       5.49695706
C        7.67213085      -5.33158431       9.74261502
C        8.36161294      -5.56336284      10.70455533
Br       9.47644716      -5.93812911      12.25993146
