185
Properties=species:S:1:pos:R:3 pbc="F F F"
C        0.00000000       0.00000000       0.00000000
C        0.88212902       0.88212902      -0.88212902
C        2.07634935       1.39054847      -0.37946924
C        2.88314396       2.19475368      -1.19064303
C        2.50652266       2.49553364      -2.50854744
C        1.28665587       1.99707946      -2.98675994
C        0.48029502       1.18368037      -2.18114111
C        3.35822908       3.36508863      -3.32993050
N        3.95937515       4.42091870      -2.77180349
N        4.52530958       5.09730248      -3.79574246
C        4.64616186       6.54991139      -3.60078731
C        5.97334975       7.21051578      -3.84934621
C        7.21304728       6.66367405      -3.49177937
C        8.39604838       7.37114422      -3.73906787
C        8.35528433       8.65545722      -4.28380508
C        7.12580727       9.23976032      -4.57263055
C        5.95764384       8.51950912      -4.35283430
F        4.78241136       9.11585850      -4.61125058
C        4.51684312       4.37194336      -4.97622094
C        5.23513218       4.72059649      -6.20752397
C        6.63064410       4.83897125      -6.20125356
C        7.34353772       5.08691817      -7.37704956
C        6.66454629       5.15792255      -8.58792711
C        5.28067463       5.00765193      -8.62633683
C        4.56804917       4.80664640      -7.43734913
C        3.70408924       3.26537036      -4.71510800
C        3.32418823       2.17135220      -5.65226147
H        2.38879892       1.17662794       0.63852952
H        3.80889990       2.59850914      -0.78725526
H        0.92723472       2.25746841      -3.97815132
H       -0.46035473       0.80506826      -2.57199059
H        4.36620198       6.75903110      -2.55761423
H        3.86440212       6.97789846      -4.24066895
H        7.27062307       5.67651866      -3.03456901
H        9.35568612       6.92266809      -3.49438335
H        9.27356144       9.20582611      -4.46608394
H        7.06665609      10.25261020      -4.96131672
H        7.18864898       4.70021505      -5.28052883
H        8.42371720       5.19210078      -7.33512982
H        4.74834372       5.03015793      -9.57371642
H        3.48875131       4.67893516      -7.48737251
H        2.23826936       2.07458525      -5.72401776
H        3.73938163       1.21914626      -5.31102915
H        3.68629252       2.34168397      -6.66713600
C        7.40149321       5.35920442      -9.80858056
C        8.01868626       5.52777799     -10.83087782
Br       9.01663521       5.80034718     -12.48384604
C       -0.88212902      -0.88212902      -0.88212902
C       -0.53164576      -2.21076499      -1.10395630
C       -1.34308979      -3.01642675      -1.90902413
C       -2.51016154      -2.50423344      -2.49620877
C       -2.83074779      -1.15618933      -2.28355814
C       -2.02617841      -0.34844666      -1.47049143
C       -3.32968577      -3.36376952      -3.35979293
N       -2.73511985      -4.22319749      -4.19377999
N       -3.72933851      -4.73939174      -4.94962426
C       -3.34075900      -5.14838436      -6.30771720
C       -3.72112728      -6.51942834      -6.79265612
C       -3.68032785      -7.67993181      -6.00824104
C       -4.02633770      -8.91950034      -6.56042243
C       -4.35303510      -9.02860019      -7.91291134
C       -4.32317831      -7.89523727      -8.71978257
C       -4.00850393      -6.66360231      -8.15788102
F       -3.95704411      -5.58974998      -8.96272635
C       -4.98529568      -4.42085536      -4.45885637
C       -6.25833823      -4.99448032      -4.91043410
C       -6.48584902      -6.37291279      -4.81210711
C       -7.71929344      -6.93157907      -5.15663293
C       -8.76278626      -6.10039618      -5.54721351
C       -8.57345741      -4.72263702      -5.61856898
C       -7.32010293      -4.17470094      -5.31724083
C       -4.75330205      -3.47123250      -3.46003306
C       -5.76189737      -2.76227893      -2.62362560
H        0.36876212      -2.63064773      -0.66501173
H       -1.05659155      -4.05020527      -2.08786748
H       -3.68976323      -0.70308498      -2.77000624
H       -2.29398300       0.69336531      -1.31608644
H       -2.24474089      -5.07267455      -6.36543188
H       -3.75654789      -4.36853360      -6.95788803
H       -3.39652667      -7.62743482      -4.95774925
H       -4.02978196      -9.80841392      -5.93454168
H       -4.61203278      -9.99247600      -8.34096271
H       -4.53619709      -7.96125720      -9.78312872
H       -5.71281233      -7.03018061      -4.42639991
H       -7.85731353      -8.00661958      -5.08701469
H       -9.39470528      -4.06530545      -5.89220734
H       -7.19354299      -3.09522290      -5.36629309
H       -5.65055732      -1.67864070      -2.70767434
H       -5.64996409      -3.04597224      -1.57362072
H       -6.78751836      -2.99053309      -2.91706105
C      -10.05125606      -6.66720153      -5.85082060
C      -11.13034952      -7.14190100      -6.10509154
Br     -12.87515238      -7.90944990      -6.51622614
C       -0.88212902       0.88212902       0.88212902
C       -2.19127393       0.49777353       1.15731959
C       -2.99490810       1.30569393       1.96793864
C       -2.49862858       2.50042121       2.51155396
C       -1.18683307       2.88400154       2.19966065
C       -0.37560111       2.07336835       1.39614704
C       -3.37216575       3.34427702       3.33680544
N       -4.65833721       3.49132070       3.00243943
N       -5.14420700       4.43284049       3.84130702
C       -6.24520983       5.24686026       3.30479047
C       -7.49392135       5.41463494       4.12465546
C       -8.09220639       4.39679288       4.87950143
C       -9.27461955       4.64347616       5.58816476
C       -9.90926571       5.88348612       5.50179480
C       -9.36541057       6.87809635       4.69469122
C       -8.17547368       6.63588632       4.01862726
F       -7.68635054       7.60058912       3.22258078
C       -4.26856670       4.72064318       4.87579754
C       -4.57306295       5.52598453       6.06420517
C       -5.59667677       5.13687919       6.93731295
C       -5.84986139       5.83944703       8.11819703
C       -5.03380727       6.90923113       8.46735755
C       -3.98640112       7.29400119       7.63426109
C       -3.76863247       6.61442309       6.42898915
C       -3.07895657       4.07159136       4.53401968
C       -1.79101389       4.07399937       5.28278865
H       -2.60127800      -0.41980184       0.74542117
H       -4.02065445       1.00523711       2.16877275
H       -0.78445761       3.83117539       2.54722145
H        0.63952119       2.38755518       1.16867014
H       -6.54088887       4.79625455       2.34570389
H       -5.78445761       6.21718963       3.08132229
H       -7.63498289       3.40964397       4.93708388
H       -9.71051113       3.85964309       6.20258335
H      -10.83110589       6.06943283       6.04493276
H       -9.86128391       7.83812926       4.58116984
H       -6.18970933       4.25221225       6.72747127
H       -6.66343525       5.52308131       8.76443124
H       -3.32547713       8.10900602       7.91773492
H       -2.93815394       6.92058313       5.79632190
H       -0.96914460       4.41757044       4.65015732
H       -1.55995189       3.06750651       5.64209865
H       -1.80960214       4.73525569       6.15025466
C       -5.25765329       7.60169436       9.70993054
C       -5.44512433       8.18163231      10.75058542
Br      -5.74824915       9.11934293      12.43323634
C        0.88212902      -0.88212902       0.88212902
C        0.39052584      -1.36397082       2.09187039
C        1.19927562      -2.17400281       2.89526223
C        2.50204596      -2.51116179       2.49739600
C        2.98849684      -1.99290434       1.28909409
C        2.17884077      -1.18920988       0.47706585
C        3.34016909      -3.34047733       3.37260180
N        3.29691149      -3.15867466       4.69651118
N        4.27684223      -3.94084454       5.20066774
C        4.88590022      -3.46078286       6.45017748
C        5.01474130      -4.40916255       7.60930789
C        4.04058785      -5.34445928       7.98345357
C        4.24047325      -6.16587607       9.09991115
C        5.37951036      -6.02162294       9.89341333
C        6.31794267      -5.04441421       9.57584126
C        6.12747978      -4.25365206       8.44885542
F        7.03166655      -3.29771136       8.18014254
C        4.79158098      -4.81577718       4.25764926
C        5.70248704      -5.93459410       4.52617151
C        5.31486541      -6.96965322       5.38635028
C        6.12934559      -8.08612383       5.59203603
C        7.32032450      -8.20496016       4.88511129
C        7.71147559      -7.20677697       3.99641085
C        6.91252825      -6.06820024       3.83131621
C        4.24290316      -4.40044686       3.04121759
C        4.48655572      -4.97345219       1.68779399
H       -0.61257469      -1.11423823       2.42523380
H        0.81288901      -2.53689124       3.84488405
H        4.01168119      -2.17686997       0.97430329
H        2.57415158      -0.79987372      -0.45732118
H        4.28595655      -2.60447664       6.79241412
H        5.86556130      -3.07201495       6.14539328
H        3.12696569      -5.45441738       7.40032767
H        3.49732389      -6.91559967       9.35981400
H        5.52787077      -6.65352431      10.76407641
H        7.19333057      -4.88734028      10.19991216
H        4.34930445      -6.93867346       5.88141495
H        5.80816817      -8.86258045       6.28019919
H        8.62547792      -7.30951454       3.41722561
H        7.22729409      -5.30410642       3.12365846
H        4.83721529      -4.20626315       0.99339392
H        3.56684084      -5.41179100       1.29092521
H        5.24682280      -5.75580422       1.69248547
C        8.13604553      -9.37961043       5.05362223
C        8.81921189     -10.36338004       5.19475014
Br       9.92383411     -11.95405229       5.42294203
