198
Properties=species:S:1:pos:R:3 pbc="F F F"
C        1.79203304       1.79203304      -1.79203304
C        2.98625337       2.30045249      -1.28937326
C        3.79304799       3.10465771      -2.10054705
C        3.41642668       3.40543767      -3.41845147
C        2.19655989       2.90698348      -3.89666397
C        1.39019904       2.09358440      -3.09104514
C        4.26813310       4.27499266      -4.23983453
N        4.86927917       5.33082272      -3.68170751
N        5.43521360       6.00720650      -4.70564648
C        5.55606589       7.45981541      -4.51069134
C        6.88325378       8.12041980      -4.75925024
C        8.12295131       7.57357807      -4.40168340
C        9.30595241       8.28104824      -4.64897189
C        9.26518836       9.56536124      -5.19370911
C        8.03571129      10.14966435      -5.48253458
C        6.86754787       9.42941315      -5.26273832
F        5.69231539      10.02576252      -5.52115461
C        5.42674714       5.28184739      -5.88612496
C        6.14503621       5.63050051      -7.11742800
C        7.54054813       5.74887528      -7.11115758
C        8.25344175       5.99682219      -8.28695358
C        7.57445032       6.06782657      -9.49783113
Br       8.54169283       6.33200894     -11.09993827
C        6.19057866       5.91755596      -9.53624086
C        5.47795320       5.71655043      -8.34725315
C        4.61399326       4.17527439      -5.62501203
C        4.23409225       3.08125623      -6.56216549
H        3.29870295       2.08653196      -0.27137450
H        4.71880392       3.50841317      -1.69715928
H        1.83713875       3.16737244      -4.88805534
H        0.44954930       1.71497229      -3.48189461
H        5.27610601       7.66893513      -3.46751825
H        4.77430615       7.88780248      -5.15057297
H        8.18052710       6.58642268      -3.94447304
H       10.26559015       7.83257212      -4.40428738
H       10.18346546      10.11573014      -5.37598796
H        7.97656011      11.16251422      -5.87122075
H        8.09855300       5.61011907      -6.19043285
H        9.33362122       6.10200480      -8.24503385
H        5.65824775       5.94006195     -10.48362045
H        4.39865533       5.58883918      -8.39727654
H        3.14817338       2.98448927      -6.63392178
H        4.64928566       2.12905029      -6.22093318
H        4.59619655       3.25158800      -7.57704002
C       -1.79203304      -1.79203304      -1.79203304
C       -1.46925382      -1.97300971      -3.13381560
C       -2.27678071      -2.78385350      -3.93761853
C       -3.40961634      -3.42152055      -3.40917893
C       -3.73346727      -3.20405604      -2.06268402
C       -2.92241225      -2.40055265      -1.25186368
C       -4.25619258      -4.24521553      -4.28155218
N       -4.49498674      -3.85038255      -5.53644013
N       -5.41586889      -4.71436418      -6.01783351
C       -6.31988641      -4.16647531      -7.04021091
C       -6.51438971      -4.92547898      -8.32305513
C       -5.49310577      -5.58682434      -9.01828267
C       -5.76850471      -6.24312411     -10.22434373
C       -7.04584311      -6.19385792     -10.78455767
C       -8.04994397      -5.47612062     -10.14184563
C       -7.77679752      -4.85298460      -8.92991721
F       -8.75363313      -4.14157055      -8.34402884
C       -5.59608816      -5.80981136      -5.18881997
C       -6.35176329      -7.02426636      -5.51693508
C       -5.97528443      -7.81654429      -6.60875227
C       -6.62596521      -9.02037653      -6.89087578
C       -7.62642711      -9.47440777      -6.03927315
Br      -8.46060329     -11.13648130      -6.37655545
C       -7.99503804      -8.72306052      -4.92627691
C       -7.37063992      -7.49431313      -4.67680373
C       -4.89920841      -5.49647971      -4.01859156
C       -4.78674717      -6.31311133      -2.77765547
H       -0.60056771      -1.48729022      -3.56875148
H       -2.02537259      -2.91095519      -4.98804860
H       -4.63559848      -3.62692835      -1.63003969
H       -3.18956829      -2.24710397      -0.20974394
H       -5.93989581      -3.16838111      -7.30428246
H       -7.27281008      -4.02462118      -6.51525034
H       -4.47961120      -5.61229226      -8.61951936
H       -4.97878945      -6.78678621     -10.73687398
H       -7.25470630      -6.69583444     -11.72464282
H       -9.04167563      -5.39122602     -10.57739344
H       -5.13894299      -7.52418228      -7.23597965
H       -6.32225363      -9.60210785      -7.75629839
H       -8.75402275      -9.08850821      -4.23939919
H       -7.66246684      -6.92643858      -3.79586563
H       -5.11636113      -5.74695719      -1.90326612
H       -3.75056833      -6.62594050      -2.62276029
H       -5.39979794      -7.21489673      -2.81012989
C       -1.79203304       1.79203304       1.79203304
C       -1.44725212       2.00526131       3.12356570
C       -2.25491483       2.81603129       3.92730662
C       -3.40985670       3.42150759       3.40895153
C       -3.75508793       3.17169276       2.07342665
C       -2.94417559       2.36819112       1.26246187
C       -4.25549389       4.24571383       4.28175256
N       -4.46251660       3.87091884       5.54837397
N       -5.39069094       4.72635682       6.03101882
C       -6.26415088       4.18131566       7.08110610
C       -6.44885105       4.96131877       8.35275400
C       -5.42754650       5.65548881       9.01517747
C       -5.69257839       6.32978357      10.21361058
C       -6.95777187       6.26703629      10.79945054
C       -7.95979691       5.51784722      10.19026609
C       -7.69777512       4.87654645       8.98537776
F       -8.67158208       4.13530685       8.43234358
C       -5.60803840       5.80179479       5.18488631
C       -6.38082737       7.00774643       5.50439093
C       -5.99905821       7.82820327       6.57331950
C       -6.66756410       9.02464685       6.84500658
C       -7.69278026       9.44278829       6.00453946
Br      -8.55258908      11.09486972       6.32618124
C       -8.06788695       8.66298454       4.91350399
C       -7.42454424       7.44176898       4.67544355
C       -4.92768163       5.47909548       4.00750257
C       -4.85489817       6.27338890       2.74922690
H       -0.56110990       1.54480436       3.55069515
H       -1.98599784       2.96836242       4.97001611
H       -4.67339420       3.56873127       1.65044105
H       -3.22816231       2.18938374       0.22887015
H       -5.85980294       3.19600342       7.35675302
H       -7.22398985       4.01106818       6.57762356
H       -4.42254852       5.69254956       8.59632474
H       -4.90395514       6.89832721      10.70016729
H       -7.15836961       6.78315379      11.73366016
H       -8.94117880       5.42251482      10.64660147
H       -5.14534104       7.56416088       7.18960300
H       -6.35875958       9.62883253       7.69306777
H       -8.84684077       9.00040161       4.23468776
H       -7.72203516       6.85135973       3.81137616
H       -5.19007039       5.68410471       1.89240934
H       -3.82816286       6.60288998       2.56821628
H       -5.48467390       7.16375230       2.77639837
C        1.79203304      -1.79203304       1.79203304
C        2.92235621      -2.40012532       1.25359760
C        3.72956561      -3.20408856       2.06459857
C        3.41717978      -3.40536005       3.41777599
C        2.25924166      -2.80703969       3.93392599
C        1.45332941      -1.99362269       3.12787647
C        4.26601866      -4.27659086       4.24035077
N        4.77058879      -5.39728507       3.71393555
N        5.35804927      -6.04702739       4.74298993
C        5.38335035      -7.51308014       4.63014215
C        6.68314376      -8.23784902       4.84193104
C        7.92810269      -7.78882109       4.38128900
C        9.08144997      -8.55159462       4.60292795
C        9.00033856      -9.79770752       5.22621262
C        7.75923577     -10.28862798       5.62004647
C        6.62307909      -9.51244464       5.42417561
F        5.43349094     -10.02041177       5.78532981
C        5.46299455      -5.25602066       5.87570428
C        6.23367632      -5.57655872       7.08272968
C        7.61713822      -5.77975895       7.00368381
C        8.38484023      -6.00279693       8.14958036
C        7.77780431      -5.96284083       9.39946288
Br       8.82396440      -6.19308970      10.95658594
C        6.40972520      -5.72672197       9.50792831
C        5.63879713      -5.55123366       8.35172599
C        4.70063663      -4.11885303       5.59479002
C        4.44178035      -2.95183370       6.48389992
H        3.18405702      -2.26431416       0.20823823
H        4.60440165      -3.68586331       1.63411141
H        1.94645148      -2.98782496       4.95829009
H        0.56144771      -1.53671617       3.54825232
H        5.02893264      -7.76423960       3.61938714
H        4.61871166      -7.85533912       5.33863082
H        8.01425624      -6.83483115       3.86233543
H       10.04855616      -8.17708289       4.27681059
H        9.89493977     -10.39155463       5.38868916
H        7.66587151     -11.27205481       6.07236876
H        8.12514294      -5.72820850       6.04575349
H        9.45266094      -6.17571507       8.05228387
H        5.93558987      -5.66246257      10.48387771
H        4.57363929      -5.35545479       8.45567697
H        3.36957267      -2.78524230       6.61176946
H        4.88935097      -2.04777414       6.06214401
H        4.85458186      -3.08541658       7.48482613
C       -0.00445707       0.01189536      -1.78238275
H       -0.66409135       0.67374010      -2.43557963
H        0.65740317      -0.63156657      -2.45157240
C       -0.90989263      -0.90692880      -0.91072765
C        0.90977584       0.90977584      -0.90977584
C       -0.00465871       1.77757030       0.00794375
H       -0.66225468       2.44313916      -0.64384735
H        0.64322798       2.43503045       0.67728295
C       -1.78241447       0.00034974      -0.00472694
H       -2.45427497      -0.65498947       0.64260836
H       -2.43311707       0.67328779      -0.65473579
C       -0.91132561       0.90220522       0.91563759
C       -0.01476271      -0.02253852       1.78660255
H       -0.67934791      -0.69751639       2.42135241
H        0.63392994       0.61504881       2.47327442
C        0.01484550      -1.77751727      -0.01636693
H        0.67870853      -2.42144646      -0.68295456
H       -0.62264859      -2.45592969       0.64226336
C        1.78714474       0.01002794       0.00389507
H        2.44202412       0.67113390       0.66197326
H        2.45385902      -0.65136977      -0.64189061
C        0.91606151      -0.90478549       0.90901405
