177
Properties=species:S:1:pos:R:3 pbc="F F F"
C        0.00000000       0.00000000       0.00000000
C        0.88212902       0.88212902      -0.88212902
C        2.07634935       1.39054847      -0.37946924
C        2.88314396       2.19475368      -1.19064303
C        2.50652266       2.49553364      -2.50854744
C        1.28665587       1.99707946      -2.98675994
C        0.48029502       1.18368037      -2.18114111
C        3.35822908       3.36508863      -3.32993050
N        3.95937515       4.42091870      -2.77180349
N        4.52530958       5.09730248      -3.79574246
C        4.64616186       6.54991139      -3.60078731
C        5.97334975       7.21051578      -3.84934621
C        7.21304728       6.66367405      -3.49177937
C        8.39604838       7.37114422      -3.73906787
C        8.35528433       8.65545722      -4.28380508
C        7.12580727       9.23976032      -4.57263055
C        5.95764384       8.51950912      -4.35283430
F        4.78241136       9.11585850      -4.61125058
C        4.51684312       4.37194336      -4.97622094
C        5.23513218       4.72059649      -6.20752397
C        6.63064410       4.83897125      -6.20125356
C        7.34353772       5.08691817      -7.37704956
C        6.66454629       5.15792255      -8.58792711
Br       7.63178881       5.42210492     -10.19003424
C        5.28067463       5.00765193      -8.62633683
C        4.56804917       4.80664640      -7.43734913
C        3.70408924       3.26537036      -4.71510800
C        3.32418823       2.17135220      -5.65226147
H        2.38879892       1.17662794       0.63852952
H        3.80889990       2.59850914      -0.78725526
H        0.92723472       2.25746841      -3.97815132
H       -0.46035473       0.80506826      -2.57199059
H        4.36620198       6.75903110      -2.55761423
H        3.86440212       6.97789846      -4.24066895
H        7.27062307       5.67651866      -3.03456901
H        9.35568612       6.92266809      -3.49438335
H        9.27356144       9.20582611      -4.46608394
H        7.06665609      10.25261020      -4.96131672
H        7.18864898       4.70021505      -5.28052883
H        8.42371720       5.19210078      -7.33512982
H        4.74834372       5.03015793      -9.57371642
H        3.48875131       4.67893516      -7.48737251
H        2.23826936       2.07458525      -5.72401776
H        3.73938163       1.21914626      -5.31102915
H        3.68629252       2.34168397      -6.66713600
C       -0.88212902      -0.88212902      -0.88212902
C       -0.55195110      -1.07379263      -2.22062332
C       -1.35952313      -1.88461233      -3.02440521
C       -2.49979169      -2.51161322      -2.49919883
C       -2.83083668      -2.28342611      -1.15623248
C       -2.01982873      -1.47992391      -0.34536386
C       -3.34605585      -3.33547509      -3.37171727
N       -3.57427960      -2.94720441      -4.63061333
N       -4.49760477      -3.80836127      -5.11238847
C       -5.39152607      -3.26129348      -6.14404101
C       -5.58270440      -4.02727492      -7.42323242
C       -4.56127309      -4.69959293      -8.10763469
C       -4.83317383      -5.36186373      -9.31122292
C       -6.10656214      -5.30803903      -9.87994547
C       -7.11011266      -4.57977903      -9.24830645
C       -6.84071515      -3.95061849      -8.03865362
F       -7.81667903      -3.22922129      -7.46362012
C       -4.69016205      -4.89727871      -4.27756666
C       -5.45152117      -6.10896447      -4.60276701
C       -5.07317584      -6.91063948      -5.68705360
C       -5.72977056      -8.11207815      -5.96565674
C       -6.73855508      -8.55421805      -5.11762282
Br      -7.58123284     -10.21306116      -5.44963397
C       -7.10943148      -7.79338608      -4.01184584
C       -6.47874938      -6.56707533      -3.76622000
C       -3.99877501      -4.58088637      -3.10490622
C       -3.89950314      -5.39022062      -1.85807814
H        0.32260372      -0.59644322      -2.65305783
H       -1.10222902      -2.02007281      -4.07236247
H       -3.73841630      -2.69773188      -0.72670627
H       -2.29264751      -1.31807032       0.69401370
H       -5.00344280      -2.26736776      -6.41203675
H       -6.34685339      -3.10997754      -5.62613859
H       -3.55053275      -4.72897253      -7.70220547
H       -4.04371237      -5.91384799      -9.81517720
H       -6.31263716      -5.81470724     -10.81812709
H       -8.09847359      -4.49135093      -9.69075849
H       -4.23097911      -6.62766983      -6.31074391
H       -5.42428214      -8.70129377      -6.82537188
H       -7.87512605      -8.14954913      -3.32754289
H       -6.77254192      -5.99169207      -2.89082498
H       -4.23105038      -4.81635830      -0.98946369
H       -2.86636927      -5.70866338      -1.69452441
H       -4.51812207      -6.28825947      -1.88873096
C       -0.88212902       0.88212902       0.88212902
C       -0.29644692       1.77577321       1.77414692
C       -1.10670432       2.58423051       2.57760585
C       -2.50558407       2.50928375       2.49573593
C       -3.07598837       1.58305822       1.61144867
C       -2.26850258       0.77832190       0.79829203
C       -3.33329148       3.34949364       3.37046310
N       -2.95789585       3.55744741       4.63675407
N       -3.98488026       4.21970031       5.21377394
C       -4.15299268       3.98767036       6.65619751
C       -4.28895463       5.17072629       7.57353082
C       -3.55730125       6.35965160       7.45154786
C       -3.73355689       7.39671523       8.37598835
C       -4.58924784       7.23819834       9.46710045
C       -5.26363907       6.03347066       9.64108841
C       -5.10700491       5.02014646       8.70283590
F       -5.74477405       3.85629299       8.90845340
C       -4.91296032       4.66547355       4.28657355
C       -6.01971529       5.59203152       4.55150584
C       -5.76055369       6.88382507       5.02649015
C       -6.78988224       7.81138311       5.20624009
C       -8.08964450       7.46996117       4.85079029
Br      -9.47391291       8.74491839       5.02509667
C       -8.36850769       6.20398294       4.34217277
C       -7.33884534       5.26370542       4.20949394
C       -4.54480458       4.05558074       3.08418228
C       -5.22311843       4.16258217       1.76210130
H        0.78370578       1.85024787       1.86035524
H       -0.64222303       3.27146082       3.28098045
H       -4.15263068       1.44788160       1.56234217
H       -2.73069826       0.06866237       0.11734350
H       -3.27933313       3.41024485       6.99326934
H       -5.02717655       3.32849167       6.72730131
H       -2.85789696       6.49627957       6.62753421
H       -3.19097245       8.33049914       8.25126598
H       -4.71724406       8.04043946      10.18778796
H       -5.90533440       5.87235436      10.50289425
H       -4.74176975       7.20006506       5.22755804
H       -6.55780300       8.79890861       5.59423619
H       -9.37708113       5.94254859       4.03258836
H       -7.57255267       4.28369797       3.79880833
H       -5.48671696       3.17566441       1.37449099
H       -4.56950969       4.65980744       1.04023992
H       -6.15176481       4.73301382       1.81033387
C        0.88212902      -0.88212902       0.88212902
C        1.99465497      -1.51567861       0.33603348
C        2.80197211      -2.31958504       1.14698352
C        2.50746439      -2.49544974       2.50768961
C        1.36683804      -1.87158241       3.03207481
C        0.56103762      -1.05816925       2.22590964
C        3.35555843      -3.36707405       3.33061573
N        3.83488083      -4.50327642       2.81394009
N        4.42820339      -5.14629989       3.84385123
C        4.42950130      -6.61411273       3.75324653
C        5.72125196      -7.35553428       3.95642550
C        6.96563528      -6.93279731       3.47006811
C        8.11054896      -7.70980745       3.68590406
C        8.02014668      -8.94491553       4.32948443
C        6.77795266      -9.41060894       4.74963654
C        5.65082640      -8.62006593       4.55909494
F        4.45937236      -9.10409234       4.94605575
C        4.56259516      -4.33989934       4.96251292
C        5.34683771      -4.65391822       6.16249672
C        6.72567218      -4.87959851       6.06559822
C        7.50747355      -5.09702225       7.20300964
C        6.92045463      -5.02874171       8.46119961
Br       7.98687892      -5.25142416      10.00562489
C        5.55795265      -4.76994099       8.58676976
C        4.77204521      -4.60016251       7.43983698
C        3.81334957      -3.19551019       4.67570785
C        3.58597813      -2.01127506       5.55054870
H        2.24224106      -1.39980426      -0.71514798
H        3.66265263      -2.82126920       0.71074247
H        1.06716808      -2.03195148       4.06373488
H       -0.31721800      -0.58123824       2.65268389
H        4.05577159      -6.87509493       2.75198080
H        3.67076756      -6.93374760       4.47845436
H        7.05825189      -5.98823760       2.93522126
H        9.07808712      -7.35524349       3.33940696
H        8.90802744      -9.54994814       4.48749591
H        6.67665294     -10.38549909       5.21843098
H        7.21957309      -4.85043484       5.09938492
H        8.57091911      -5.28783867       7.09219002
H        5.09994922      -4.68357048       9.56869837
H        3.71171156      -4.38643074       7.55691668
H        2.51852190      -1.82625212       5.69209835
H        4.04066757      -1.12073002       5.10815946
H        4.01208531      -2.13599441       6.54703277
