194
Properties=species:S:1:pos:R:3 pbc="F F F"
Cl       4.69125494      12.04235313      -5.75134812
C        4.76067933      10.33325583      -5.56940765
C        4.50383675       9.75777555      -4.32866394
C        4.55654721       8.36873282      -4.18523018
C        4.89178587       7.54979929      -5.27810875
C        5.12697122       8.14054698      -6.52608287
C        5.06324991       9.53104906      -6.66797574
N        4.94399535       6.13363980      -5.08839141
N        4.23098768       5.60115575      -4.06880881
C        4.24657501       4.27627621      -4.25826488
C        3.41699010       3.40829085      -3.41465370
C        2.84568148       2.23023463      -3.92013429
C        2.04309260       1.41979369      -3.10942673
C        1.79159541       1.79159541      -1.79159541
C        2.33109561       2.96727268      -1.27657421
C        3.13951784       3.77048783      -2.08710575
C        5.16396471       3.93300456      -5.29510984
C        5.59321977       2.56712793      -5.70584710
C        5.61794300       5.14804696      -5.80994864
C        6.65182334       5.37364881      -6.82895316
C        6.56620470       4.73709817      -8.07504003
C        7.54948306       4.93866809      -9.04743541
C        8.62086672       5.78866423      -8.78354260
C        8.72584348       6.42491994      -7.54906967
C        7.75184520       6.20418102      -6.56920297
H        4.26074368      10.37879503      -3.47056147
H        4.35471389       7.93656068      -3.20515425
H        5.31683549       7.54930684      -7.41687297
H        5.24088869       9.98023708      -7.64291566
H        2.99608253       1.93711359      -4.95501582
H        1.61285257       0.51032313      -3.52047947
H        2.12743100       3.27259112      -0.25342750
H        3.54930268       4.69260154      -1.67707396
H        6.61879778       2.56452051      -6.08603236
H        4.93459432       2.18383313      -6.49236939
H        5.56995400       1.87116476      -4.86114536
H        5.73181682       4.07930209      -8.30159809
H        7.46902307       4.42950421     -10.00661100
H        9.55954492       7.09073407      -7.33654125
H        7.85963507       6.69925554      -5.60457010
C        9.62469618       6.01054543      -9.79185562
C       10.46540336       6.19637094     -10.63631777
Br      11.82475576       6.49683506     -12.00174164
Cl      -8.05310657      -3.27178486     -11.16006476
C       -7.31384285      -3.68629942      -9.66320054
C       -6.05343593      -3.18574343      -9.35109689
C       -5.45755864      -3.52068127      -8.13227030
C       -6.11012220      -4.37951406      -7.23005764
C       -7.38730887      -4.85895094      -7.54734126
C       -7.98489469      -4.51309092      -8.76428911
N       -5.46320982      -4.70544021      -5.99737654
N       -4.52855951      -3.84933209      -5.52306064
C       -4.26693226      -4.24325021      -4.27093362
C       -3.41202221      -3.41831781      -3.40959463
C       -3.62808075      -3.34306882      -2.02490083
C       -2.81551126      -2.53972255      -1.21707922
C       -1.79159541      -1.79159541      -1.79159541
C       -1.57367178      -1.83521882      -3.16605190
C       -2.38232861      -2.64557733      -3.96920547
C       -4.88331266      -5.50210723      -4.00665922
C       -4.71143437      -6.35621569      -2.79854475
C       -5.64062975      -5.79321582      -5.14209302
C       -6.39786337      -7.01626357      -5.44029837
C       -7.35092078      -7.49626578      -4.53115635
C       -8.06985104      -8.66363342      -4.80210209
C       -7.84795357      -9.35361150      -5.99150848
C       -6.90077574      -8.89516444      -6.90389290
C       -6.16654654      -7.73845394      -6.62022869
H       -5.52907146      -2.53509514     -10.04593357
H       -4.46899021      -3.12086874      -7.90656986
H       -7.96403675      -5.46440638      -6.85457217
H       -8.98011064      -4.88501960      -8.99891119
H       -4.44308395      -3.88776718      -1.55736080
H       -2.99875347      -2.49829606      -0.14660564
H       -0.78615529      -1.24269721      -3.62459712
H       -2.20904446      -2.66559321      -5.04434051
H       -4.81213428      -7.41855293      -3.03866344
H       -5.46413245      -6.10180388      -2.04486051
H       -3.71797059      -6.22709203      -2.35720151
H       -7.54433528      -6.96475915      -3.60362257
H       -8.80071927      -9.02440675      -4.08001226
H       -6.72296675      -9.42868444      -7.83516904
H       -5.41954207      -7.40428217      -7.33963647
C       -8.60141101     -10.54658860      -6.27909762
C       -9.23243162     -11.54570693      -6.51995352
Br     -10.25273857     -13.16119676      -6.90939714
Cl      -8.97437883       2.99385136      10.51672599
C       -8.01181778       3.47630833       9.17521671
C       -6.78578208       2.85953604       8.94495813
C       -6.00828552       3.25059374       7.85163096
C       -6.44299748       4.27943089       6.99726553
C       -7.68857384       4.87691019       7.22811704
C       -8.46873401       4.47550791       8.31803280
N       -5.61445305       4.65674736       5.89482615
N       -4.72877592       3.74833023       5.42384609
C       -4.27006779       4.24314011       4.26790820
C       -3.41101769       3.41849877       3.41041820
C       -3.45880124       3.52540470       2.01184446
C       -2.64580116       2.72139993       1.20511195
C       -1.79159541       1.79159541       1.79159541
C       -1.74420715       1.65441596       3.17631939
C       -2.55198482       2.46536247       3.97976412
C       -4.70459123       5.59085680       4.09663108
C       -4.28869811       6.54570473       3.03179197
C       -5.56116144       5.84650489       5.16827227
C       -6.20904255       7.11401767       5.53136510
C       -6.98126324       7.80782325       4.58925641
C       -7.59415809       9.01867340       4.92275507
C       -7.44776657       9.53879039       6.20651659
C       -6.67935142       8.86661158       7.15387009
C       -6.04859431       7.66576448       6.81087040
H       -6.42830479       2.07507470       9.60672070
H       -5.04987083       2.75760871       7.68894928
H       -8.10295952       5.62315227       6.55690351
H       -9.43792188       4.94084453       8.48527502
H       -4.14308499       4.21656985       1.52855710
H       -2.69686216       2.82258863       0.12420438
H       -1.09121266       0.92055010       3.64168687
H       -2.51370670       2.34379588       5.06147561
H       -4.29992297       7.57893565       3.39049202
H       -4.96456289       6.47307547       2.17315848
H       -3.26831790       6.34295029       2.69099594
H       -7.11477845       7.41124042       3.58669813
H       -8.18404187       9.54627830       4.17481812
H       -6.56146624       9.26671942       8.15863458
H       -5.43950765       7.16266033       7.56129273
C       -8.09393847      10.77736516       6.55579361
C       -8.63510743      11.81467152       6.84831312
Br      -9.51013187      13.49190818       7.32129243
Cl       6.53839035     -11.85961265       4.08695318
C        6.15981014     -10.19617242       4.30736025
C        6.02639400      -9.36358578       3.20029647
C        5.71427685      -8.01370903       3.38252434
C        5.55902005      -7.48457552       4.67609834
C        5.67494511      -8.33816956       5.78048639
C        5.97752046      -9.69136336       5.59339089
N        5.24881406      -6.09639185       4.82082065
N        4.65332762      -5.46543845       3.78218617
C        4.25243122      -4.27763070       4.25105417
C        3.41503894      -3.40820140       3.41669431
C        2.43867462      -2.57420937       3.98316641
C        1.63562844      -1.76198957       3.17469503
C        1.79159541      -1.79159541       1.79159541
C        2.73963582      -2.62756972       1.20773696
C        3.54612911      -3.43172249       2.01925981
C        4.78769223      -4.05082001       5.55356686
C        4.71373240      -2.79748344       6.35497897
C        5.44351290      -5.23312834       5.89929735
C        6.25223344      -5.50755527       7.09463661
C        5.72202540      -5.28343609       8.37288141
C        6.48678532      -5.53321613       9.51558510
C        7.78530652      -6.02044104       9.38732600
C        8.33099964      -6.24336646       8.12546699
C        7.57111549      -5.97155059       6.98256310
H        6.16089295      -9.75413674       2.19507049
H        5.61620138      -7.37674840       2.50347903
H        5.49203227      -7.99622861       6.79475441
H        6.05891098     -10.34802137       6.45710908
H        2.27186301      -2.56010509       5.05624383
H        0.88745569      -1.12167536       3.63452412
H        2.85757889      -2.66794267       0.12792806
H        4.27853961      -4.08857668       1.55186189
H        5.58880650      -2.67996958       7.00057457
H        3.81937464      -2.80446607       6.98695613
H        4.67860260      -1.91354870       5.71011282
H        4.70735945      -4.91383530       8.49152225
H        6.05963828      -5.34593746      10.49956254
H        9.34424598      -6.62457240       8.01800185
H        8.02100228      -6.13819293       6.00426550
C        8.56721596      -6.29489006      10.56499121
C        9.22206513      -6.52474112      11.55128582
Br      10.28090084      -6.89639084      13.14604079
C       -0.00445707       0.01189536      -1.78238275
H       -0.66409135       0.67374010      -2.43557963
H        0.65740317      -0.63156657      -2.45157240
C       -0.90989263      -0.90692880      -0.91072765
C        0.90977584       0.90977584      -0.90977584
C       -0.00465871       1.77757030       0.00794375
H       -0.66225468       2.44313916      -0.64384735
H        0.64322798       2.43503045       0.67728295
C       -1.78241447       0.00034974      -0.00472694
H       -2.45427497      -0.65498947       0.64260836
H       -2.43311707       0.67328779      -0.65473579
C       -0.91132561       0.90220522       0.91563759
C       -0.01476271      -0.02253852       1.78660255
H       -0.67934791      -0.69751639       2.42135241
H        0.63392994       0.61504881       2.47327442
C        0.01484550      -1.77751727      -0.01636693
H        0.67870853      -2.42144646      -0.68295456
H       -0.62264859      -2.45592969       0.64226336
C        1.78714474       0.01002794       0.00389507
H        2.44202412       0.67113390       0.66197326
H        2.45385902      -0.65136977      -0.64189061
C        0.91606151      -0.90478549       0.90901405
