194
Properties=species:S:1:pos:R:3 pbc="F F F"
C        1.79157718       1.79157718      -1.79157718
C        1.41385510       3.10444399      -2.05594297
C        2.21874555       3.90326327      -2.87293440
C        3.40449011       3.39959731      -3.43404709
C        3.78018716       2.08348328      -3.13419451
C        2.97246518       1.27742419      -2.32332087
C        4.21480907       4.25834773      -4.30733684
N        4.32337635       5.56095155      -4.03574815
N        5.03722376       6.10505954      -5.05039150
C        5.15931409       7.53022917      -5.10166690
C        4.90652635       8.27543574      -3.93465325
C        5.02639960       9.66753201      -3.93642157
C        5.38233571      10.33277332      -5.10638912
C        5.60428396       9.60279723      -6.27190338
Cl       6.01596676      10.42851056      -7.72589342
C        5.48924717       8.21031316      -6.27947222
C        5.53226725       5.11931702      -5.90526912
C        6.52287231       5.32174796      -6.96804602
C        7.78979072       5.84341099      -6.67095171
C        8.72962726       6.04396424      -7.68400018
C        8.41499921       5.70111051      -8.99695815
C        7.16787333       5.16668960      -9.30756571
C        6.22114449       4.98328971      -8.29594587
C        4.95904034       3.92204877      -5.47692728
C        5.12906321       2.57183334      -6.08211631
H        0.50103403       3.51757587      -1.63574045
H        1.91465992       4.92987405      -3.07471744
H        4.70991689       1.66841187      -3.51135013
H        3.27677888       0.25570476      -2.11077453
H        4.63230047       7.77909297      -3.00416394
H        4.84197111      10.22846733      -3.02328928
H        5.47448164      11.41547974      -5.10669518
H        5.62104196       7.69621432      -7.22434041
H        8.05233005       6.10768837      -5.64845119
H        9.70135855       6.46683634      -7.43920019
H        6.91914740       4.89117261     -10.32888916
H        5.24523226       4.57707358      -8.55267460
H        4.21430550       1.97915870      -5.98683583
H        5.94729909       2.03774223      -5.58831596
H        5.35813040       2.62066141      -7.14889130
C        9.38624823       5.89976107     -10.04137823
C       10.19966928       6.06613091     -10.91608005
Br      11.51490232       6.33513687     -12.33039891
C       -1.79157718      -1.79157718      -1.79157718
C       -2.64467374      -1.20702185      -2.72254647
C       -3.45778632      -2.01834231      -3.51881459
C       -3.42849529      -3.41749022      -3.39214900
C       -2.54352806      -3.98714392      -2.46719298
C       -1.73369690      -3.17772502      -1.66178832
C       -4.31319082      -4.23948090      -4.22782191
N       -4.55952424      -3.87287206      -5.48767976
N       -5.47031791      -4.75167749      -5.97067940
C       -6.04467123      -4.49101773      -7.25552119
C       -5.38360605      -3.60560149      -8.12740779
C       -5.90206383      -3.33245781      -9.39583154
C       -7.09442540      -3.92552539      -9.80154736
C       -7.76858403      -4.77914078      -8.93125976
Cl      -9.25834891      -5.48955527      -9.42246656
C       -7.25684981      -5.06032005      -7.66186269
C       -5.69656523      -5.79194939      -5.06833876
C       -6.43936217      -7.02564470      -5.34765942
C       -6.03964017      -7.87806681      -6.38644644
C       -6.75188145      -9.04809245      -6.65761779
C       -7.85434058      -9.38365602      -5.87507127
C       -8.25549535      -8.55741028      -4.82922303
C       -7.55315577      -7.37723009      -4.56999421
C       -5.00413020      -5.44582787      -3.90805832
C       -4.95588762      -6.20155910      -2.62556614
H       -2.68756607      -0.12764400      -2.83914028
H       -4.12291378      -1.55163899      -4.24469863
H       -2.45749203      -5.06489423      -2.36729263
H       -1.06099330      -3.63904775      -0.94321711
H       -4.44581686      -3.13278555      -7.83695497
H       -5.37242764      -2.65742242     -10.06387766
H       -7.49701460      -3.71171229     -10.78792967
H       -7.84715470      -5.68894433      -7.00549766
H       -5.17522511      -7.63285007      -7.00039442
H       -6.43942160      -9.68902569      -7.47894778
H       -9.11067951      -8.81734406      -4.21118561
H       -7.88379674      -6.73280201      -3.75838170
H       -4.88737831      -5.52260357      -1.77031816
H       -4.08894816      -6.87005910      -2.61435002
H       -5.84890388      -6.81039466      -2.46838456
C       -8.58480696     -10.59414888      -6.14843168
C       -9.19657256     -11.60793664      -6.37737103
Br     -10.18574578     -13.24714571      -6.74754660
C       -1.79157718       1.79157718       1.79157718
C       -2.78564490       1.21352384       2.57507332
C       -3.59720411       2.02641997       3.37131914
C       -3.42580397       3.42095821       3.39137234
C       -2.40216201       3.98044279       2.61526016
C       -1.59274447       3.17061038       1.80985538
C       -4.31129808       4.24808272       4.22111283
N       -4.71778897       3.79353850       5.40874859
N       -5.58788062       4.71223191       5.89256226
C       -6.31201054       4.39379347       7.08540614
C       -5.82816138       3.36867515       7.91977880
C       -6.49640814       3.03368610       9.10025894
C       -7.66393406       3.70525457       9.45230953
C       -8.16385751       4.70006365       8.61506342
Cl      -9.62381867       5.51030364       9.03624843
C       -7.50142734       5.04378796       7.43381725
C       -5.62362101       5.84916857       5.08406381
C       -6.27369239       7.12106796       5.41790594
C       -5.90492996       7.82844884       6.57077461
C       -6.52979651       9.03492108       6.89287410
C       -7.51082625       9.55221275       6.05002887
C       -7.87786504       8.87155825       4.89270536
C       -7.26496425       7.65493386       4.58048195
C       -4.85139265       5.54303396       3.96358977
C       -4.60278900       6.40530246       2.77492140
H       -2.93990097       0.13802691       2.57642247
H       -4.37325874       1.56488650       3.98110616
H       -2.20702796       5.04837972       2.63427121
H       -0.81043016       3.62536469       1.20746331
H       -4.91341799       2.83152906       7.67061033
H       -6.10246418       2.24921772       9.74204582
H       -8.18314133       3.44330132      10.37021391
H       -7.96094809       5.78739892       6.79324969
H       -5.13410739       7.44053813       7.23382409
H       -6.24483865       9.56185665       7.80069977
H       -8.63776561       9.27348194       4.22796162
H       -7.56924505       7.12549324       3.68024215
H       -4.51046645       5.80496274       1.86487084
H       -3.68111564       6.97998419       2.91225745
H       -5.41491393       7.11402041       2.59874877
C       -8.15022320      10.80042391       6.37674041
C       -8.68571814      11.84580076       6.65036132
Br      -9.55156817      13.53608672       7.09278320
C        1.79157718      -1.79157718       1.79157718
C        1.65058647      -3.17521140       1.74844419
C        2.45220119      -3.97671516       2.56602687
C        3.39851578      -3.40580039       3.43381834
C        3.54286591      -2.01213715       3.44286189
C        2.73601375      -1.20537599       2.63182050
C        4.20811148      -4.27567056       4.29671159
N        4.62423542      -5.45821304       3.83762759
N        5.25281727      -6.06971991       4.87013762
C        5.65262427      -7.43404266       4.70454323
C        5.75732381      -7.95723267       3.40205886
C        6.15658179      -9.27993492       3.19383647
C        6.43855454     -10.10020297       4.28274064
C        6.30747276      -9.59658750       5.57492430
Cl       6.62812003     -10.62016059       6.92209012
C        5.91122789      -8.27460151       5.79320315
C        5.38523619      -5.21010473       5.96151247
C        6.20292328      -5.45532361       7.15441941
C        7.58115240      -5.68450753       7.03849348
C        8.35786831      -5.92631989       8.17340350
C        7.76345625      -5.91645611       9.43315551
C        6.39943743      -5.67439262       9.56829860
C        5.61933297      -5.45057461       8.43047248
C        4.66032780      -4.06461126       5.63307732
C        4.44699568      -2.85729382       6.47872336
H        0.92528584      -3.64160752       1.08745699
H        2.33437270      -5.05912394       2.52575476
H        4.29132502      -1.53224332       4.06611055
H        2.85687204      -0.12545055       2.66093558
H        5.54828297      -7.33493893       2.53233548
H        6.24687536      -9.66569147       2.18116089
H        6.74821134     -11.12890273       4.11954249
H        5.77438512      -7.94934851       6.81786307
H        8.06040055      -5.68660861       6.06146045
H        9.42246664      -6.12059633       8.06433211
H        5.93141638      -5.65888641      10.54890638
H        4.55209158      -5.27549810       8.54739077
H        3.45996410      -2.42030169       6.30003424
H        5.21029186      -2.10373793       6.25932749
H        4.49825908      -3.08341059       7.54601343
C        8.56479608      -6.15754378      10.60504765
C        9.23591819      -6.35945471      11.58650733
Br      10.32106589      -6.68592760      13.17344461
C       -0.00445707       0.01189536      -1.78238275
H       -0.66409135       0.67374010      -2.43557963
H        0.65740317      -0.63156657      -2.45157240
C       -0.90989263      -0.90692880      -0.91072765
C        0.90977584       0.90977584      -0.90977584
C       -0.00465871       1.77757030       0.00794375
H       -0.66225468       2.44313916      -0.64384735
H        0.64322798       2.43503045       0.67728295
C       -1.78241447       0.00034974      -0.00472694
H       -2.45427497      -0.65498947       0.64260836
H       -2.43311707       0.67328779      -0.65473579
C       -0.91132561       0.90220522       0.91563759
C       -0.01476271      -0.02253852       1.78660255
H       -0.67934791      -0.69751639       2.42135241
H        0.63392994       0.61504881       2.47327442
C        0.01484550      -1.77751727      -0.01636693
H        0.67870853      -2.42144646      -0.68295456
H       -0.62264859      -2.45592969       0.64226336
C        1.78714474       0.01002794       0.00389507
H        2.44202412       0.67113390       0.66197326
H        2.45385902      -0.65136977      -0.64189061
C        0.91606151      -0.90478549       0.90901405
