165
Properties=species:S:1:pos:R:3 pbc="F F F"
C        0.00000000       0.00000000       0.00000000
C        0.88167316       0.88167316      -0.88167316
C        0.50395108       2.19453996      -1.14603895
C        1.30884152       2.99335925      -1.96303038
C        2.49458609       2.48969328      -2.52414307
C        2.87028313       1.17357926      -2.22429049
C        2.06256115       0.36752017      -1.41341684
C        3.30490504       3.34844371      -3.39743281
N        3.41347233       4.65104753      -3.12584413
N        4.12731973       5.19515551      -4.14048748
C        4.24941006       6.62032514      -4.19176287
C        3.99662233       7.36553171      -3.02474922
C        4.11649558       8.75762798      -3.02651755
C        4.47243168       9.42286930      -4.19648510
C        4.69437994       8.69289321      -5.36199936
Cl       5.10606274       9.51860654      -6.81598940
C        4.57934315       7.30040914      -5.36956819
C        4.62236322       4.20941300      -4.99536509
C        5.61296829       4.41184393      -6.05814200
C        6.87988669       4.93350696      -5.76104768
C        7.81972324       5.13406022      -6.77409616
C        7.50509519       4.79120649      -8.08705412
Br       8.78030292       5.05202603      -9.45833228
C        6.25796931       4.25678558      -8.39766169
C        5.31124047       4.07338568      -7.38604184
C        4.04913631       3.01214474      -4.56702325
C        4.21915918       1.66192932      -5.17221229
H       -0.40886999       2.60767184      -0.72583643
H        1.00475589       4.01997002      -2.16481341
H        3.80001287       0.75850784      -2.60144611
H        2.36687485      -0.65419927      -1.20087051
H        3.72239645       6.86918894      -2.09425992
H        3.93206709       9.31856331      -2.11338526
H        4.56457761      10.50557571      -4.19679116
H        4.71113793       6.78631030      -6.31443639
H        7.14242602       5.19778435      -4.73854716
H        8.79145452       5.55693231      -6.52929617
H        6.00924338       3.98126859      -9.41898513
H        4.33532824       3.66716956      -7.64277057
H        3.30440148       1.06925468      -5.07693180
H        5.03739507       1.12783820      -4.67841193
H        4.44822637       1.71075738      -6.23898727
C       -0.88167316      -0.88167316      -0.88167316
C       -0.51741439      -1.12466502      -2.20245058
C       -1.33408997      -1.92294675      -3.00819443
C       -2.52035102      -2.48323948      -2.50483194
C       -2.85547146      -2.24780503      -1.16487639
C       -2.04465525      -1.44184369      -0.35699923
C       -3.36766990      -3.29778932      -3.38532234
N       -2.80100005      -4.09818567      -4.29117826
N       -3.81351580      -4.63867264      -5.01077428
C       -3.48130696      -5.41117898      -6.16901214
C       -2.17420381      -5.91796303      -6.29473643
C       -1.81031505      -6.68773656      -7.40258950
C       -2.74085269      -6.94548495      -8.40544844
C       -4.02721058      -6.42117625      -8.30088567
Cl      -5.16915996      -6.71581825      -9.55568046
C       -4.40122075      -5.65234966      -7.19575007
C       -5.05427565      -4.30967463      -4.46319103
C       -6.34376441      -4.89795326      -4.84123654
C       -6.55258909      -6.28065497      -4.74119728
C       -7.77730094      -6.84144445      -5.10913422
C       -8.80812098      -6.01841174      -5.55682308
Br     -10.47061081      -6.77485313      -6.04519729
C       -8.62382640      -4.64170207      -5.64688811
C       -7.39174707      -4.08309559      -5.29582533
C       -4.78976168      -3.39122993      -3.44731270
C       -5.77937058      -2.69527019      -2.57866002
H        0.39386607      -0.70201667      -2.61648767
H       -1.04098634      -2.10729510      -4.04125788
H       -3.74014405      -2.69649194      -0.72333083
H       -2.32754122      -1.26331533       0.67731046
H       -1.42845893      -5.73604232      -5.52134407
H       -0.80075449      -7.08455774      -7.47870341
H       -2.45643499      -7.54361148      -9.26689802
H       -5.39720845      -5.22525262      -7.18942356
H       -5.75909328      -6.93468232      -4.38498193
H       -7.91664902      -7.91810962      -5.04292436
H       -9.42643878      -3.99395417      -5.98910414
H       -7.25511586      -3.00740841      -5.38274410
H       -5.43980303      -1.68683608      -2.32394885
H       -5.93102973      -3.25970591      -1.65290957
H       -6.75130698      -2.58268961      -3.06397444
C       -0.88167316       0.88167316       0.88167316
C       -2.15206292       1.24609627       0.44637080
C       -2.95021302       2.06267849       1.25233964
C       -2.48802437       2.52374470       2.49665336
C       -1.21630020       2.12387673       2.92797596
C       -0.41041511       1.31311460       2.11996845
C       -3.34301541       3.39974650       3.30801965
N       -4.66316765       3.20171347       3.32548286
N       -5.19070681       4.20504600       4.06720991
C       -6.61540330       4.33540297       4.11069181
C       -7.40929904       3.23193376       3.74567046
C       -8.80372631       3.31108062       3.78583419
C       -9.42146641       4.49694236       4.17337730
C       -8.64096814       5.60159781       4.50670654
Cl      -9.40579740       7.07702748       4.95783380
C       -7.24591446       5.53145647       4.47194954
C       -4.18956792       4.96908997       4.66848342
C       -4.39061162       5.98393239       5.70841021
C       -5.00406234       5.64716587       6.92321312
C       -5.20299975       6.61523416       7.90964572
C       -4.76741064       7.92084854       7.69509662
Br      -5.02626316       9.23042349       9.03397458
C       -4.14167290       8.26918075       6.50156293
C       -3.95933099       7.30396704       5.50736995
C       -2.98619671       4.50249190       4.13961570
C       -1.61642479       5.01419957       4.42267643
H       -2.53250572       0.90440816      -0.51227560
H       -3.94336254       2.34321703       0.90295976
H       -0.83740283       2.42158524       3.90097876
H        0.57723230       1.02213295       2.46864544
H       -6.95115690       2.29027885       3.44440955
H       -9.40364392       2.44556619       3.51480554
H      -10.50598107       4.55749540       4.20346802
H       -6.68767668       6.43443260       4.68977534
H       -5.34162892       4.62922027       7.10790834
H       -5.69716006       6.34144070       8.83908224
H       -3.79380849       9.28448547       6.33120314
H       -3.48083564       7.59089409       4.57353863
H       -0.97589409       4.93556748       3.53912639
H       -1.16185145       4.44312661       5.23866714
H       -1.61809638       6.06716930       4.71270534
C        0.88167316      -0.88167316       0.88167316
C        2.07567543      -0.37919175       1.38966281
C        2.88429190      -1.19436524       2.18657401
C        2.51047007      -2.51639325       2.48155913
C        1.29184459      -2.99441356       1.98189473
C        0.48320794      -2.18398618       1.17630405
C        3.39480822      -3.35356889       3.30240446
N        4.07124484      -2.80491571       4.31420344
N        4.86485754      -3.78064142       4.81746376
C        5.83045496      -3.42036816       5.81067496
C        5.66434170      -2.21106587       6.51149569
C        6.57589973      -1.82656974       7.49817164
C        7.67244072      -2.63519480       7.78415055
C        7.85824788      -3.81834237       7.07268225
Cl       9.23050041      -4.80366868       7.40648959
C        6.95088719      -4.21248749       6.08594580
C        4.58306056      -5.01454094       4.22953982
C        5.08254847      -6.31693481       4.68347095
C        4.82345989      -6.76438210       5.98659934
C        5.30623180      -8.00043326       6.42121456
C        6.03093144      -8.80630133       5.54612303
Br       6.67613760     -10.48495841       6.12956522
C        6.28350745      -8.38520159       4.24370755
C        5.81567035      -7.13992957       3.81506806
C        3.67805742      -4.74807333       3.20217356
C        3.09330377      -5.72151921       2.23847781
H        2.38843860       0.63897558       1.17517526
H        3.81764669      -0.79239882       2.57949382
H        0.94412746      -3.99483785       2.22100151
H       -0.45388422      -2.57712404       0.79030627
H        4.81164500      -1.56281355       6.31138676
H        6.42634911      -0.89642047       8.04124607
H        8.38107349      -2.33471580       8.55115519
H        7.17058359      -5.11446833       5.52683270
H        4.25138443      -6.14909167       6.67828143
H        5.11203378      -8.32449232       7.44115690
H        6.84254357      -9.01241644       3.55453709
H        6.03038993      -6.81574686       2.79913158
H        2.93141592      -5.25891214       1.26025990
H        2.13499427      -6.09449862       2.61415232
H        3.74418070      -6.58249245       2.07129787
