194
Properties=species:S:1:pos:R:3 pbc="F F F"
C        1.79019275       1.79019275      -1.79019275
C        1.69755602       1.70202791      -3.17775234
C        2.49978554       2.51503007      -3.98790644
C        3.44150065       3.37635752      -3.41793359
C        3.50189868       3.46914926      -2.01563167
C        2.68080006       2.68524402      -1.20287338
C        4.31436803       4.23709958      -4.21900044
C        4.52557727       5.59445877      -4.03340682
C        5.48021742       6.00398280      -4.98896269
N        5.87918927       4.95473940      -5.71526439
N        5.14107731       3.90043739      -5.27454368
C        5.24366362       2.69169433      -6.10257846
C        5.07120298       1.34367960      -5.45068895
C        5.80065661       0.95940164      -4.31699939
C        5.62448374      -0.31433228      -3.76473404
C        4.73464179      -1.21445641      -4.34969779
Cl       4.51388650      -2.77444821      -3.66114158
C        4.02808489      -0.86299879      -5.49580394
C        4.20623771       0.40638586      -6.04925361
C        6.00577488       7.35163856      -5.21433583
C        5.24131076       8.48218790      -4.88706914
C        5.74363206       9.77051695      -5.10351695
C        7.01454781       9.93300336      -5.64750260
C        7.78770082       8.82372020      -5.98214057
C        7.28072340       7.53627904      -5.76931804
H        1.00143577       1.00851475      -3.63990949
H        2.37961540       2.45882923      -5.06372309
H        4.19675261       4.15779986      -1.54103812
H        2.74194658       2.78180385      -0.12399182
H        4.03967226       6.21090436      -3.29039613
H        6.23693700       2.70754484      -6.57179249
H        4.50388937       2.83817575      -6.89925395
H        6.50335993       1.64575540      -3.85207100
H        6.18537496      -0.59783531      -2.87653613
H        3.34380711      -1.56386967      -5.95982540
H        3.65155407       0.66292817      -6.95134486
H        4.24008209       8.37760893      -4.47612342
H        5.13337294      10.63248031      -4.84945354
H        8.77906287       8.94305577      -6.40904459
H        7.88929032       6.67427304      -6.03578575
C        7.53193151      11.25843017      -5.86921831
C        7.96524036      12.36847513      -6.05490522
Br       8.66586412      14.16332395      -6.35514524
C       -1.79019275      -1.79019275      -1.79019275
C       -2.80460895      -2.55499596      -1.21773136
C       -3.61900239      -3.35830743      -2.02541224
C       -3.38611594      -3.44908945      -3.40058637
C       -2.37390773      -2.65016643      -3.96260545
C       -1.58061415      -1.82176681      -3.16653649
C       -4.19837304      -4.28425172      -4.28784329
C       -4.77857095      -3.89108894      -5.48378297
C       -5.41758495      -5.02419567      -6.03138230
N       -5.22045380      -6.08582636      -5.24291290
N       -4.52076961      -5.62348868      -4.17180009
C       -4.40374119      -6.57506450      -3.05913072
C       -3.19142385      -6.50813111      -2.16601656
C       -1.88442653      -6.52001715      -2.67261395
C       -0.79075837      -6.48387532      -1.80025181
C       -0.99538590      -6.45316132      -0.42133595
Cl       0.35152829      -6.39810927       0.64600111
C       -2.28512969      -6.47627781       0.10051746
C       -3.37651155      -6.51600389      -0.76936175
C       -6.19618921      -5.10722104      -7.26833902
C       -6.85754448      -3.97788058      -7.77514275
C       -7.60264876      -4.05775438      -8.95726281
C       -7.68798302      -5.26867151      -9.63839924
C       -7.04163160      -6.40183086      -9.15009913
C       -6.30126738      -6.32029665      -7.96475645
H       -2.97425768      -2.53012747      -0.14547486
H       -4.42834440      -3.91124066      -1.56258266
H       -2.19257130      -2.66846091      -5.03455838
H       -0.81167029      -1.20984042      -3.62623154
H       -4.74047552      -2.89616954      -5.90432769
H       -4.43882429      -7.58329440      -3.49415563
H       -5.32465814      -6.43754253      -2.47911841
H       -1.70640689      -6.55052654      -3.74425290
H        0.21956638      -6.47954190      -2.20410027
H       -2.44803450      -6.46372914       1.17200080
H       -4.37953240      -6.54183133      -0.34446337
H       -6.81704977      -3.02648807      -7.25027661
H       -8.11244012      -3.17362302      -9.32924366
H       -7.10581701      -7.35030450      -9.67504173
H       -5.80125920      -7.21037702      -7.58771289
C       -8.45362773      -5.35073163     -10.85522064
C       -9.09485518      -5.41945698     -11.87430855
Br     -10.13166574      -5.53058005     -13.52208752
C       -1.79019275       1.79019275       1.79019275
C       -2.92621251       2.39504997       1.25607379
C       -3.74009467       3.19778088       2.06484650
C       -3.39121636       3.44996666       3.39460874
C       -2.25486124       2.81004342       3.92177494
C       -1.45823368       1.98169610       3.12898767
C       -4.19886250       4.29258200       4.27902356
C       -4.62239328       3.97173122       5.55931836
C       -5.32042883       5.09075429       6.06197980
N       -5.30689841       6.07983611       5.16245855
N       -4.66593430       5.57722842       4.07289567
C       -4.75054145       6.41671662       2.87067834
C       -3.62579893       6.37146801       1.86830458
C       -2.28556202       6.55625250       2.23524312
C       -1.27955814       6.53262204       1.26270531
C       -1.60694004       6.34216647      -0.07922333
Cl      -0.36625952       6.30334263      -1.26902227
C       -2.93508397       6.19208839      -0.46628232
C       -3.93942034       6.21922674       0.50323011
C       -5.98537635       5.22733049       7.35904243
C       -6.47787494       4.09932926       8.03336360
C       -7.11440550       4.23028050       9.27297995
C       -7.25964207       5.49136795       9.84404375
C       -6.78067861       6.62365321       9.18922978
C       -6.14897167       6.49028828       7.94706054
H       -3.19111446       2.24499829       0.21374726
H       -4.64116480       3.62302743       1.63797549
H       -1.97773915       2.95463671       4.96321472
H       -0.59143048       1.49395492       3.56235686
H       -4.44388923       3.03289406       6.06418945
H       -4.84809336       7.45654035       3.21164061
H       -5.70235026       6.13578737       2.40318145
H       -2.01300365       6.71260405       3.27557863
H       -0.24102039       6.66332312       1.55973228
H       -3.19449522       6.05494294      -1.50967531
H       -4.97487476       6.10833769       0.18261466
H       -6.38910796       3.10710966       7.59759682
H       -7.49437755       3.34540102       9.77552823
H       -6.89260370       7.61079306       9.62776646
H       -5.77976711       7.37963477       7.43994723
C       -7.91352241       5.62612994      11.11992764
C       -8.46114720       5.73899311      12.18848040
Br      -9.34661017       5.92148331      13.91623983
C        1.79019275      -1.79019275       1.79019275
C        1.40480482      -2.07358259       3.09894887
C        2.20816684      -2.88800816       3.90654705
C        3.42981719      -3.37386709       3.43210749
C        3.78875250      -3.09755826       2.10036885
C        2.97534010      -2.31379010       1.27978725
C        4.31389408      -4.21721282       4.23936115
C        4.89176913      -5.41457272       3.84710101
C        5.70930729      -5.85302097       4.91083466
N        5.67953471      -4.96222724       5.90743112
N        4.80296002      -3.99926666       5.51383170
C        4.43214291      -3.04176568       6.56402781
C        4.05959566      -1.63520950       6.17076636
C        4.87921018      -0.84157973       5.35626773
C        4.50202455       0.46884545       5.04170640
C        3.31679577       0.99799225       5.55107966
Cl       2.85253216       2.60498881       5.15303653
C        2.50816389       0.23688232       6.38960847
C        2.88589768      -1.06932692       6.70665259
C        6.50095410      -7.08200337       4.98879180
C        6.12567217      -8.22261521       4.26228041
C        6.88217651      -9.39776520       4.33772424
C        8.01900406      -9.43601038       5.14003933
C        8.40639559      -8.31567172       5.87149428
C        7.64498349      -7.14319788       5.79813912
H        0.47937794      -1.67086391       3.49961816
H        1.86661607      -3.12884346       4.90670819
H        4.71422744      -3.49279803       1.68856511
H        3.27171990      -2.12213791       0.25388445
H        4.73379345      -5.90841315       2.89876614
H        5.28395635      -2.97743525       7.25488272
H        3.60993214      -3.52751534       7.10387160
H        5.80962552      -1.23551283       4.95604798
H        5.13852253       1.07187733       4.39743059
H        1.59173789       0.64845433       6.79647928
H        2.24575028      -1.64907450       7.37100232
H        5.23246728      -8.21910277       3.64224439
H        6.57098643     -10.27170054       3.77261983
H        9.29079142      -8.33913123       6.50124058
H        7.95209701      -6.27267377       6.37457832
C        8.79805013     -10.64463808       5.21689179
C        9.45050121     -11.65686378       5.28125572
Br      10.50545943     -13.29354713       5.38532676
C       -0.00445707       0.01189536      -1.78238275
H       -0.66409135       0.67374010      -2.43557963
H        0.65740317      -0.63156657      -2.45157240
C       -0.90989263      -0.90692880      -0.91072765
C        0.90977584       0.90977584      -0.90977584
C       -0.00465871       1.77757030       0.00794375
H       -0.66225468       2.44313916      -0.64384735
H        0.64322798       2.43503045       0.67728295
C       -1.78241447       0.00034974      -0.00472694
H       -2.45427497      -0.65498947       0.64260836
H       -2.43311707       0.67328779      -0.65473579
C       -0.91132561       0.90220522       0.91563759
C       -0.01476271      -0.02253852       1.78660255
H       -0.67934791      -0.69751639       2.42135241
H        0.63392994       0.61504881       2.47327442
C        0.01484550      -1.77751727      -0.01636693
H        0.67870853      -2.42144646      -0.68295456
H       -0.62264859      -2.45592969       0.64226336
C        1.78714474       0.01002794       0.00389507
H        2.44202412       0.67113390       0.66197326
H        2.45385902      -0.65136977      -0.64189061
C        0.91606151      -0.90478549       0.90901405
