173
Properties=species:S:1:pos:R:3 pbc="F F F"
C        0.00000000       0.00000000       0.00000000
C        0.88028873       0.88028873      -0.88028873
C        0.78765200       0.79212388      -2.26784832
C        1.58988152       1.60512605      -3.07800242
C        2.53159663       2.46645350      -2.50802957
C        2.59199465       2.55924524      -1.10572765
C        1.77089603       1.77534000      -0.29296935
C        3.40446401       3.32719555      -3.30909642
C        3.61567325       4.68455475      -3.12350279
C        4.57031340       5.09407878      -4.07905867
N        4.96928525       4.04483538      -4.80536036
N        4.23117329       2.99053336      -4.36463966
C        4.33375960       1.78179030      -5.19267443
C        4.16129895       0.43377557      -4.54078492
C        4.89075259       0.04949761      -3.40709536
C        4.71457972      -1.22423631      -2.85483002
C        3.82473776      -2.12436043      -3.43979377
Cl       3.60398247      -3.68435223      -2.75123756
C        3.11818087      -1.77290282      -4.58589991
C        3.29633369      -0.50351816      -5.13934959
C        5.09587085       6.44173454      -4.30443181
C        4.33140674       7.57228388      -3.97716512
C        4.83372803       8.86061293      -4.19361292
C        6.10464378       9.02309933      -4.73759858
C        6.87779680       7.91381618      -5.07223655
C        6.37081938       6.62637502      -4.85941402
H        0.09153174       0.09861073      -2.73000546
H        1.46971137       1.54892520      -4.15381907
H        3.28684859       3.24789583      -0.63113409
H        1.83204256       1.87189983       0.78591220
H        3.12976823       5.30100033      -2.38049211
H        5.32703297       1.79764081      -5.66188846
H        3.59398535       1.92827173      -5.98934993
H        5.59345591       0.73585138      -2.94216698
H        5.27547094      -1.50773933      -1.96663211
H        2.43390309      -2.47377369      -5.04992138
H        2.74165005      -0.24697586      -6.04144083
H        3.33017807       7.46770491      -3.56621940
H        4.22346892       9.72257628      -3.93954952
H        7.86915885       8.03315174      -5.49914057
H        6.97938629       5.76436901      -5.12588173
C        6.62202749      10.34852615      -4.95931429
C        7.05533634      11.45857111      -5.14500120
Br       7.75596010      13.25341992      -5.44524122
C       -0.88028873      -0.88028873      -0.88028873
C       -2.24177579      -0.99793529      -0.60791311
C       -3.05332136      -1.79995352      -1.41973511
C       -2.49917582      -2.53634325      -2.47056062
C       -1.12788186      -2.38436425      -2.74472143
C       -0.32027090      -1.55982693      -1.95910755
C       -3.29981114      -3.40049169      -3.34045315
C       -3.28463558      -3.41260407      -4.72649114
C       -4.16252844      -4.43518477      -5.14573764
N       -4.67663942      -5.06093334      -4.08190823
N       -4.18551422      -4.40451456      -2.99631753
C       -4.81367246      -4.77355771      -1.72099416
C       -4.00298779      -4.67904097      -0.45383069
C       -2.74427760      -5.28165141      -0.32141656
C       -2.04246178      -5.18843970       0.88572805
C       -2.59934870      -4.50994855       1.96912615
Cl      -1.72847253      -4.38915485       3.44675958
C       -3.86272823      -3.93567302       1.86722329
C       -4.56484120      -4.03153867       0.66421476
C       -4.51041818      -4.81571838      -6.51590064
C       -4.44518870      -3.87779723      -7.55786979
C       -4.77875414      -4.24162264      -8.86757711
C       -5.17797195      -5.54687812      -9.14049163
C       -5.25238799      -6.49173592      -8.11972562
C       -4.92308809      -6.12374435      -6.80977598
H       -2.68340368      -0.46647608       0.22973183
H       -4.11666875      -1.84218257      -1.21360433
H       -0.67350687      -2.91341342      -3.57895822
H        0.73299506      -1.45418227      -2.19684297
H       -2.70328338      -2.75294916      -5.35502813
H       -5.15311853      -5.81377114      -1.81967258
H       -5.70886190      -4.14238939      -1.66035572
H       -2.29808979      -5.82007075      -1.15331373
H       -1.06013630      -5.64796129       0.97373387
H       -4.30366560      -3.41702343       2.71063826
H       -5.55619682      -3.58344543       0.60352723
H       -4.15131062      -2.84910926      -7.36368250
H       -4.72796712      -3.49896198      -9.65866563
H       -5.56526571      -7.51117276      -8.32501268
H       -4.98626001      -6.86651553      -6.01686150
C       -5.52012074      -5.92162969     -10.48811749
C       -5.80667036      -6.23548413     -11.61675415
Br      -6.26999686      -6.74296022     -13.44166417
C       -0.88028873       0.88028873       0.88028873
C       -1.41376685       2.06263087       0.37122648
C       -2.22861609       2.86864869       1.17574521
C       -2.46552211       2.52968637       2.51087121
C       -1.93894652       1.31977284       2.99824818
C       -1.15342266       0.49535444       2.19042828
C       -3.29775069       3.34407312       3.39893216
C       -4.33037207       2.88925077       4.20410794
C       -4.81539167       3.99873101       4.92932816
N       -4.10330141       5.08919805       4.62698153
N       -3.21758687       4.69685606       3.67190339
C       -2.49450060       5.79551597       3.01820776
C       -1.10691652       5.54189929       2.48704364
C       -0.09285168       4.97967104       3.27482284
C        1.18775656       4.78939904       2.74353095
C        1.46647094       5.17405762       1.43258442
Cl       3.03859030       4.92842891       0.78102919
C        0.48195503       5.76589222       0.64724078
C       -0.79484157       5.95924681       1.17807673
C       -5.92357756       4.03313995       5.88531968
C       -6.97680953       3.11009925       5.79394694
C       -8.03665769       3.14381024       6.70748596
C       -8.04627880       4.10120194       7.71786095
C       -7.01202610       5.02824111       7.82358231
C       -5.95578335       4.99544758       6.90537748
H       -1.20682225       2.36445420      -0.65112852
H       -2.66638144       3.76159458       0.74447963
H       -2.13682830       1.00806850       4.02098171
H       -0.76584700      -0.43645246       2.58863565
H       -4.68684213       1.87014048       4.25427806
H       -2.42471942       6.61316023       3.74868260
H       -3.16477389       6.13002968       2.21680344
H       -0.29059800       4.68024901       4.30062726
H        1.96409397       4.33949555       3.35896213
H        0.69780651       6.07638075      -0.36852346
H       -1.55201947       6.43135804       0.55273752
H       -6.99683156       2.36442507       5.00284574
H       -8.84550703       2.42461521       6.61547248
H       -7.01422440       5.77935667       8.60787008
H       -5.15259009       5.72463842       6.99240852
C       -9.13607101       4.13530317       8.65849374
C      -10.04877198       4.16386295       9.44627371
Br     -11.52453226       4.21004170      10.72004729
C        0.88028873      -0.88028873       0.88028873
C        0.30094907      -1.84739614       1.69927898
C        1.10824840      -2.66192994       2.50283164
C        2.49287883      -2.47458210       2.53861876
C        3.06051422      -1.51047161       1.68598170
C        2.26321445      -0.71827263       0.85771830
C        3.38085132      -3.28869792       3.37120674
C        4.54183736      -3.92359603       2.95829739
C        5.10691537      -4.54261756       4.09391792
N        4.36340350      -4.28195216       5.17412533
N        3.30107835      -3.56115067       4.72411729
C        2.22716490      -3.37283263       5.70822681
C        1.37393425      -2.13284058       5.62908462
C        1.92472824      -0.84481080       5.57780652
C        1.08927806       0.27699002       5.53288539
C       -0.29601834       0.12003870       5.55622815
Cl      -1.31827521       1.50099487       5.49013789
C       -0.86023373      -1.14903321       5.64237848
C       -0.02705987      -2.26834145       5.69088352
C        6.31887175      -5.36095595       4.16220950
C        6.76290977      -6.07768823       3.04025774
C        7.92112187      -6.86074598       3.10608604
C        8.64111512      -6.92880155       4.29542503
C        8.21518334      -6.22757598       5.42109020
C        7.05353314      -5.44919574       5.35387954
H       -0.77666116      -1.97999231       1.71681678
H        0.63792552      -3.43525718       3.09927295
H        4.13798704      -1.36641428       1.66147719
H        2.72696082       0.01281158       0.20388095
H        4.92819753      -3.93411646       1.94894668
H        2.69592196      -3.38892831       6.70171198
H        1.61173799      -4.27692912       5.62293990
H        3.00220423      -0.70364045       5.56562958
H        1.52680106       1.27176308       5.47932574
H       -1.93640961      -1.27450234       5.67195805
H       -0.48460399      -3.25434944       5.76636958
H        6.20660070      -6.05109897       2.10640270
H        8.24426522      -7.41302887       2.22830064
H        8.77066165      -6.27792943       6.35286008
H        6.72521002      -4.90630432       6.23812269
C        9.83336640      -7.73352083       4.36298070
C       10.83187685      -8.40747323       4.41955857
Br      12.44638379      -9.49719725       4.51104021
