194
Properties=species:S:1:pos:R:3 pbc="F F F"
C        1.79170670       1.79170670      -1.79170670
C        2.66253503       2.70479663      -1.20189613
C        3.46512438       3.51170123      -2.01196219
C        3.41091560       3.40819698      -3.41112895
C        2.52058424       2.49276620      -3.98828968
C        1.71385928       1.68388451      -3.17910207
C        4.24773719       4.28684447      -4.23086483
N        4.32295830       5.58203123      -3.92764468
N        5.18733547       6.11560851      -4.81988853
C        5.56040169       7.49771398      -4.52525975
C        4.67580778       8.53443411      -5.16828866
C        4.06240782       9.51189153      -4.35619003
C        3.28317222      10.51826851      -4.91657194
C        3.10268056      10.57509163      -6.29551243
C        3.70252046       9.61950454      -7.11245464
C        4.48554341       8.60731496      -6.55496885
C        5.65628029       5.20592416      -5.76826417
C        6.53344408       5.47315381      -6.94944722
C        7.45059612       6.53279132      -7.03555246
C        8.22881248       6.76607096      -8.18174858
C        8.15353767       5.90213025      -9.25964793
C        7.28149593       4.82443675      -9.21460036
C        6.46895200       4.63696697      -8.08476654
C        5.08848688       3.99571457      -5.33969697
Cl       5.34957376       2.41515559      -5.92898472
H        2.72130008       2.80289867      -0.12175370
H        4.13301864       4.23442593      -1.54625045
H        2.42766027       2.41294836      -5.06934585
H        1.02508312       0.98212568      -3.64088436
H        6.60986002       7.66842916      -4.72926183
H        5.49408365       7.59186895      -3.43066515
H        4.19123349       9.48338151      -3.27643616
H        2.81438688      11.25917205      -4.27575046
H        2.49326538      11.36032166      -6.73275641
H        3.55898247       9.66156958      -8.19176360
H        4.93534964       7.88047126      -7.22454976
H        7.61776666       7.23001910      -6.22770602
H        8.89744666       7.62313618      -8.20555932
H        7.21430757       4.12954058     -10.04195792
H        5.76862406       3.80533372      -8.12963525
C        8.97424031       6.12152601     -10.42236573
C        9.66157877       6.30526995     -11.39614189
Br      10.77294693       6.60236837     -12.97065557
C       -1.79170670      -1.79170670      -1.79170670
C       -1.57875085      -1.82267338      -3.16780356
C       -2.38945102      -2.62809366      -3.97124311
C       -3.40953968      -3.41191705      -3.40878479
C       -3.61789699      -3.35976344      -2.02397968
C       -2.80808456      -2.55234430      -1.21641700
C       -4.25706183      -4.22552380      -4.28286087
N       -4.73532828      -3.69144460      -5.40586132
N       -5.43373066      -4.67875662      -6.01034523
C       -5.87117947      -4.34725035      -7.36494560
C       -7.23180944      -3.70424470      -7.44247641
C       -7.36754877      -2.46304900      -8.09989162
C       -8.61420582      -1.86302638      -8.24078047
C       -9.75055366      -2.48769862      -7.73503234
C       -9.63525105      -3.71426500      -7.08496358
C       -8.38627553      -4.32068107      -6.94087062
C       -5.48647285      -5.86552762      -5.27846815
C       -6.24920004      -7.11225844      -5.59458661
C       -6.61671342      -7.51318945      -6.88903704
C       -7.36576217      -8.67609239      -7.13477746
C       -7.71892018      -9.50859109      -6.08780459
C       -7.35771551      -9.17094280      -4.79187474
C       -6.65810779      -7.97642060      -4.55615712
C       -4.66089804      -5.58461420      -4.17838618
Cl      -4.12920324      -6.62799682      -2.93651401
H       -0.79606532      -1.22450271      -3.62538441
H       -2.22867858      -2.63703126      -5.04798518
H       -4.42268424      -3.92662250      -1.56064774
H       -2.98450118      -2.51855561      -0.14503638
H       -5.78244208      -5.20319588      -8.02191304
H       -5.11582600      -3.64732613      -7.75346562
H       -6.49084503      -1.95924908      -8.50095706
H       -8.69918218      -0.90501753      -8.74510968
H      -10.72372381      -2.01845865      -7.84416099
H      -10.52405092      -4.20226449      -6.68600024
H       -8.33721055      -5.27600881      -6.42715129
H       -6.34428341      -6.95714039      -7.77406798
H       -7.65196963      -8.91895210      -8.15522044
H       -7.61386843      -9.81309475      -3.95884290
H       -6.44863705      -7.74013279      -3.51482318
C       -8.45888051     -10.71755701      -6.34169453
C       -9.07859730     -11.73006597      -6.55432735
Br     -10.08062692     -13.36720732      -6.89813664
C       -1.79170670       1.79170670       1.79170670
C       -1.62851725       1.76601404       3.17469650
C       -2.43913772       2.57169864       3.97795143
C       -3.40942764       3.41194072       3.40887317
C       -3.56845563       3.41661381       2.01657068
C       -2.75864104       2.60911177       1.20909304
C       -4.25912843       4.22465023       4.28166783
N       -4.79698926       3.66903273       5.36661221
N       -5.48169561       4.65929764       5.98183925
C       -5.98012351       4.29627666       7.30697526
C       -7.36462606       3.70137912       7.31252537
C       -7.56836283       2.44348404       7.91864251
C       -8.83984631       1.88507730       7.99308906
C       -9.93397122       2.56863901       7.47067440
C       -9.75143325       3.81241465       6.87063173
C       -8.47728985       4.37723487       6.79330249
C       -5.46538677       5.87240788       5.29267397
C       -6.19453558       7.13434187       5.62716766
C       -6.59493905       7.50236404       6.92163681
C       -7.31081229       8.68257203       7.18324770
C       -7.59550500       9.56408779       6.15572307
C       -7.19910387       9.25955010       4.86187906
C       -6.53409668       8.04922626       4.60736257
C       -4.61040949       5.60051648       4.21297244
Cl      -3.99676252       6.66702334       3.02992822
H       -0.88488280       1.12362803       3.63744162
H       -2.31784011       2.53653779       5.05931712
H       -4.33506171       4.02874545       1.54614731
H       -2.89664062       2.61983897       0.13161358
H       -5.88530442       5.12454980       7.99769679
H       -5.26485446       3.55572324       7.69604005
H       -6.72540933       1.89389323       8.33174860
H       -8.97721821       0.91356117       8.45853001
H      -10.92652019       2.13191671       7.52790655
H      -10.60710457       4.34659579       6.45861529
H       -8.37553235       5.34772645       6.31711185
H       -6.37511415       6.90564652       7.79473110
H       -7.62554776       8.89945546       8.20113895
H       -7.40153162       9.93981612       4.04445833
H       -6.29499680       7.84246776       3.56612847
C       -8.30096807      10.78967559       6.42748839
C       -8.89179339      11.81610538       6.65509184
Br      -9.84710797      13.47575553       7.02310738
C        1.79170670      -1.79170670       1.79170670
C        2.73814981      -2.62741267       1.20366531
C        3.54059183      -3.43470131       2.01349465
C        3.41076106      -3.40821551       3.41126496
C        2.44537856      -2.57048550       3.98577606
C        1.63866322      -1.76147927       3.17670336
C        4.25065369      -4.28584767       4.22894513
N        4.40942592      -5.55776301       3.86544527
N        5.25490302      -6.09369603       4.77423346
C        5.71489328      -7.43778993       4.43069222
C        4.85519739      -8.55020510       4.97312806
C        4.33593978      -9.51291158       4.08163803
C        3.58386821     -10.58539928       4.54874519
C        3.33758890     -10.72408774       5.91160799
C        3.84423624      -9.78413077       6.80611262
C        4.59963208      -8.70580891       6.34238623
C        5.62682955      -5.21304849       5.79059058
C        6.45645314      -5.49798683       7.00160513
C        7.42289283      -6.51328027       7.08276680
C        8.15379429      -6.76747907       8.25535866
C        7.97886441      -5.96664570       9.36980575
C        7.05439697      -4.93325021       9.33288586
C        6.29086086      -4.72732934       8.17249531
C        5.01805638      -4.01191621       5.39392583
Cl       5.16522770      -2.45362745       6.07485892
H        2.85621189      -2.66515893       0.12458163
H        4.26833643      -4.09730940       1.54804920
H        2.29416995      -2.55273912       5.06304539
H        0.89139892      -1.12062237       3.63607188
H        6.76033768      -7.56612009       4.68109324
H        5.70872282      -7.47711895       3.33077598
H        4.51715818      -9.42088404       3.01300894
H        3.18772102     -11.31397811       3.84761025
H        2.74937216     -11.56097213       6.27599917
H        3.64908417      -9.89039278       7.87283870
H        4.97614972      -7.99372734       7.07049359
H        7.66708723      -7.15751479       6.25088976
H        8.86479133      -7.58992944       8.27142139
H        6.90906148      -4.28735040      10.18939420
H        5.54614964      -3.93546869       8.22197469
C        8.75057443      -6.20573724      10.56182038
C        9.39688157      -6.40597641      11.56013263
Br      10.44190556      -6.72974621      13.17431910
C       -0.00445707       0.01189536      -1.78238275
H       -0.66409135       0.67374010      -2.43557963
H        0.65740317      -0.63156657      -2.45157240
C       -0.90989263      -0.90692880      -0.91072765
C        0.90977584       0.90977584      -0.90977584
C       -0.00465871       1.77757030       0.00794375
H       -0.66225468       2.44313916      -0.64384735
H        0.64322798       2.43503045       0.67728295
C       -1.78241447       0.00034974      -0.00472694
H       -2.45427497      -0.65498947       0.64260836
H       -2.43311707       0.67328779      -0.65473579
C       -0.91132561       0.90220522       0.91563759
C       -0.01476271      -0.02253852       1.78660255
H       -0.67934791      -0.69751639       2.42135241
H        0.63392994       0.61504881       2.47327442
C        0.01484550      -1.77751727      -0.01636693
H        0.67870853      -2.42144646      -0.68295456
H       -0.62264859      -2.45592969       0.64226336
C        1.78714474       0.01002794       0.00389507
H        2.44202412       0.67113390       0.66197326
H        2.45385902      -0.65136977      -0.64189061
C        0.91606151      -0.90478549       0.90901405
