165
Properties=species:S:1:pos:R:3 pbc="F F F"
C        0.00000000       0.00000000       0.00000000
C        0.88180268       0.88180268      -0.88180268
C        1.75263101       1.79489260      -0.29199211
C        2.55522036       2.60179721      -1.10205816
C        2.50101158       2.49829296      -2.50122492
C        1.61068021       1.58286218      -3.07838565
C        0.80395526       0.77398048      -2.26919804
C        3.33783317       3.37694045      -3.32096080
N        3.41305427       4.67212720      -3.01774066
N        4.27743144       5.20570449      -3.90998450
C        4.65049767       6.58780995      -3.61535573
C        3.76590376       7.62453009      -4.25838463
C        3.15250379       8.60198751      -3.44628601
C        2.37326820       9.60836449      -4.00666791
C        2.19277654       9.66518761      -5.38560841
C        2.79261643       8.70960051      -6.20255062
C        3.57563938       7.69741094      -5.64506482
C        4.74637626       4.29602014      -4.85836014
C        5.62354005       4.56324978      -6.03954319
C        6.54069210       5.62288730      -6.12564843
C        7.31890846       5.85616693      -7.27184456
C        7.24363365       4.99222623      -8.34974391
Br       8.32006993       5.27998642      -9.87476840
C        6.37159190       3.91453273      -8.30469634
C        5.55904797       3.72706295      -7.17486251
C        4.17858285       3.08581055      -4.42979294
Cl       4.43966974       1.50525156      -5.01908070
H        1.81139606       1.89299464       0.78815032
H        3.22311461       3.32452190      -0.63634643
H        1.51775624       1.50304433      -4.15944182
H        0.11517910       0.07222166      -2.73098034
H        5.69995599       6.75852513      -3.81935781
H        4.58417963       6.68196493      -2.52076113
H        3.28132946       8.57347749      -2.36653214
H        1.90448286      10.34926802      -3.36584644
H        1.58336136      10.45041764      -5.82285238
H        2.64907845       8.75166555      -7.28185958
H        4.02544562       6.97056723      -6.31464573
H        6.70786264       6.32011507      -5.31780199
H        7.98754264       6.71323216      -7.29565530
H        6.30440355       3.21963656      -9.13205390
H        4.85872003       2.89542969      -7.21973122
C       -0.88180268      -0.88180268      -0.88180268
C       -0.40840846      -2.11901882      -1.31208844
C       -1.21678491      -2.92121922      -2.12107160
C       -2.50186257      -2.50006828      -2.49859861
C       -2.95787079      -1.24732489      -2.06673236
C       -2.14941719      -0.44048681      -1.25722979
C       -3.31298487      -3.35473386      -3.36801569
N       -2.74813193      -3.92148303      -4.43330717
N       -3.71779854      -4.67062065      -5.00470125
C       -3.23751806      -5.53583495      -6.08031034
C       -3.28441601      -4.91280824      -7.45159423
C       -2.10558898      -4.86922102      -8.22596731
C       -2.11888874      -4.35241279      -9.51699907
C       -3.30537331      -3.87340046     -10.06479878
C       -4.47889749      -3.91060831      -9.31526176
C       -4.47088804      -4.42826987      -8.01895723
C       -4.95734601      -4.57161643      -4.37179411
C       -6.25938234      -5.17532556      -4.79162513
C       -6.38313845      -6.33979059      -5.56629878
C       -7.62895631      -6.85043688      -5.96752676
C       -8.79723637      -6.23813399      -5.55023342
Br     -10.47372139      -6.94759036      -6.05351301
C       -8.73013437      -5.09903661      -4.76164998
C       -7.47694361      -4.56811666      -4.41591316
C       -4.67175677      -3.75948584      -3.26294373
Cl      -5.67707466      -3.33723728      -1.94969006
H        0.58250121      -2.46556257      -1.03317902
H       -0.83610704      -3.88069506      -2.46718084
H       -3.93399678      -0.87536062      -2.37088499
H       -2.51459614       0.53023487      -0.93401982
H       -3.72689317      -6.50108523      -6.04986053
H       -2.19333001      -5.77033175      -5.82324393
H       -1.16857428      -5.23812519      -7.81463961
H       -1.20102244      -4.32196860     -10.09660628
H       -3.31529017      -3.46886702     -11.07247418
H       -5.40740819      -3.53282106      -9.74237433
H       -5.40540160      -4.43905121      -7.46620576
H       -5.53188275      -6.91615836      -5.89773860
H       -7.66318612      -7.73651088      -6.59673309
H       -9.63144480      -4.61003988      -4.41460933
H       -7.48890508      -3.64486311      -3.84011276
C       -0.88180268       0.88180268       0.88180268
C       -1.37442223       0.38071493       2.08437856
C       -2.18317518       1.18933509       2.88656546
C       -2.49853631       2.50180559       2.50018756
C       -2.00438427       2.98602784       1.28151593
C       -1.19494310       2.17747742       0.47471327
C       -3.36949308       3.31353380       3.35270754
N       -4.47464458       2.76870548       3.85957207
N       -5.03837799       3.73147641       4.62326603
C       -6.16189064       3.26080274       5.43096997
C       -7.50652747       3.38088332       4.76140769
C       -8.32046541       2.23394993       4.64636197
C       -9.59010547       2.31369245       4.08450268
C      -10.07689411       3.53609773       3.63058071
C       -9.28771211       4.67888627       3.73816918
C       -8.01264854       4.60420061       4.30126599
C       -4.35824681       4.94941023       4.59309951
C       -4.75331481       6.24368663       5.22933158
C       -5.56577667       6.35435082       6.36910034
C       -5.94082300       7.59512535       6.91097160
C       -5.45950510       8.76827709       6.35782159
Br      -5.92842884      10.43581606       7.11057985
C       -4.63206536       8.71276647       5.24598914
C       -4.31194728       7.46741600       4.68161016
C       -3.23093556       4.65209858       3.81115220
Cl      -1.86774575       5.62242037       3.47383588
H       -1.14424167      -0.63164465       2.40364336
H       -2.57809389       0.78765984       3.81822921
H       -2.25935963       3.98547138       0.93541138
H       -0.82303049       2.56492768      -0.46957707
H       -6.14980869       3.71382826       6.41420198
H       -5.95127020       2.20005959       5.63557589
H       -7.95694344       1.26969436       4.99470129
H      -10.20067980       1.41966734       3.99925018
H      -11.06784660       3.59791642       3.19086836
H       -9.66697251       5.63555358       3.38007749
H       -7.42756768       5.51655247       4.36653843
H       -5.94866762       5.49589920       6.90121288
H       -6.60087702       7.62094888       7.77460419
H       -4.23504706       9.61749782       4.80354913
H       -3.70219292       7.49103733       3.78065070
C        0.88180268      -0.88180268       0.88180268
C        2.17464000      -0.46936101       1.19551471
C        2.97909948      -1.28021308       1.99976316
C        2.49853753      -2.50018509       2.50180683
C        1.19965725      -2.90563414       2.16663665
C        0.39166227      -2.09591274       1.35955877
C        3.37705512      -3.33744565       3.32123364
N        4.63689417      -3.53211629       2.93391167
N        5.19972934      -4.29762309       3.89576800
C        6.64594716      -4.45403618       3.75368000
C        7.06808594      -5.64628027       2.93445227
C        7.92186272      -5.45083092       1.82808368
C        8.37814990      -6.53049873       1.07965196
C        7.99829859      -7.82564906       1.41962491
C        7.15762932      -8.03715029       2.50998795
C        6.69682602      -6.95688867       3.26440046
C        4.31636435      -4.67762764       4.90676456
C        4.57104886      -5.59718482       6.05809934
C        5.83364640      -5.82847960       6.62710182
C        6.03035748      -6.73027108       7.68629138
C        4.95015525      -7.38580295       8.24964559
Br       5.20709343      -8.56639524       9.70133608
C        3.67755559      -7.17240228       7.74086310
C        3.50444886      -6.31132168       6.64520289
C        3.14057420      -3.99352153       4.56009061
Cl       1.67735390      -3.85808900       5.42855910
H        2.56813718       0.47009467       0.81819787
H        3.99411020      -0.96039318       2.22947957
H        0.80941248      -3.86172741       2.50910251
H       -0.61147332      -2.42557086       1.10428355
H        7.13637988      -4.42308176       4.71837729
H        6.99298089      -3.53317189       3.26075290
H        8.22883999      -4.44595354       1.54654556
H        9.03051922      -6.36089464       0.22818345
H        8.35378946      -8.66843968       0.83440224
H        6.85732521      -9.05057100       2.77470736
H        6.04229766      -7.16232161       4.10603931
H        6.72885341      -5.32662434       6.29030195
H        7.03628868      -6.89584658       8.06429484
H        2.81666099      -7.66616788       8.17326514
H        2.49121357      -6.22467652       6.25799085
