186
Properties=species:S:1:pos:R:3 pbc="F F F"
C        1.79170670       1.79170670      -1.79170670
C        2.66253503       2.70479663      -1.20189613
C        3.46512438       3.51170123      -2.01196219
C        3.41091560       3.40819698      -3.41112895
C        2.52058424       2.49276620      -3.98828968
C        1.71385928       1.68388451      -3.17910207
C        4.24773719       4.28684447      -4.23086483
N        4.32295830       5.58203123      -3.92764468
N        5.18733547       6.11560851      -4.81988853
C        5.56040169       7.49771398      -4.52525975
C        4.67580778       8.53443411      -5.16828866
C        4.06240782       9.51189153      -4.35619003
C        3.28317222      10.51826851      -4.91657194
C        3.10268056      10.57509163      -6.29551243
C        3.70252046       9.61950454      -7.11245464
C        4.48554341       8.60731496      -6.55496885
C        5.65628029       5.20592416      -5.76826417
C        6.53344408       5.47315381      -6.94944722
C        7.45059612       6.53279132      -7.03555246
C        8.22881248       6.76607096      -8.18174858
C        8.15353767       5.90213025      -9.25964793
Br       9.22997395       6.18989045     -10.78467242
C        7.28149593       4.82443675      -9.21460036
C        6.46895200       4.63696697      -8.08476654
C        5.08848688       3.99571457      -5.33969697
Cl       5.34957376       2.41515559      -5.92898472
H        2.72130008       2.80289867      -0.12175370
H        4.13301864       4.23442593      -1.54625045
H        2.42766027       2.41294836      -5.06934585
H        1.02508312       0.98212568      -3.64088436
H        6.60986002       7.66842916      -4.72926183
H        5.49408365       7.59186895      -3.43066515
H        4.19123349       9.48338151      -3.27643616
H        2.81438688      11.25917205      -4.27575046
H        2.49326538      11.36032166      -6.73275641
H        3.55898247       9.66156958      -8.19176360
H        4.93534964       7.88047126      -7.22454976
H        7.61776666       7.23001910      -6.22770602
H        8.89744666       7.62313618      -8.20555932
H        7.21430757       4.12954058     -10.04195792
H        5.76862406       3.80533372      -8.12963525
C       -1.79170670      -1.79170670      -1.79170670
C       -1.59149618      -1.80776162      -3.16996999
C       -2.40217715      -2.61325040      -3.97336024
C       -3.40951027      -3.41192392      -3.40880735
C       -3.60523881      -3.37472205      -2.02167926
C       -2.79542523      -2.56728161      -1.21413902
C       -4.25760139      -4.22528484      -4.28256026
N       -4.75145258      -3.68525394      -5.39592768
N       -5.44625935      -4.67342041      -6.00315275
C       -5.89958905      -4.33338818      -7.35039820
C       -7.26685703      -3.70258336      -7.40909017
C       -7.42043344      -2.45662137      -8.05343458
C       -8.67393514      -1.86712400      -8.17695353
C       -9.79954488      -2.50722877      -7.66651098
C       -9.66660995      -3.73868720      -7.02918249
C       -8.41069976      -4.33458555      -6.90254191
C       -5.48095340      -5.86744312      -5.28207210
C       -6.23492075      -7.11831596      -5.60280839
C       -6.61088897      -7.51055818      -6.89749275
C       -7.35129888      -8.67814067      -7.14719247
C       -7.68672128      -9.52371673      -6.10487784
Br      -8.64546100     -11.11531984      -6.44375599
C       -7.31645422      -9.19482515      -4.80925367
C       -6.62587206      -7.99599996      -4.56881349
C       -4.64767827      -5.58905367      -4.18716647
Cl      -4.09450667      -6.63895135      -2.96025605
H       -0.81881347      -1.19795274      -3.62918624
H       -2.25152021      -2.61057689      -5.05159791
H       -4.40026029      -3.95348504      -1.55620914
H       -2.96200854      -2.54520397      -0.14088065
H       -5.80905325      -5.18226238      -8.01623538
H       -5.15453619      -3.62274043      -7.73934113
H       -6.55232195      -1.94081512      -8.45791408
H       -8.77265144      -0.90527807      -8.67137988
H      -10.77805801      -2.04621312      -7.76207233
H      -10.54698442      -4.23878914      -6.62654209
H       -8.34782796      -5.29417828      -6.39836441
H       -6.35206513      -6.94368834      -7.77973831
H       -7.64485773      -8.91412410      -8.16716034
H       -7.55868746      -9.84714903      -3.97996958
H       -6.40878394      -7.76750947      -3.52729962
C       -1.79170670       1.79170670       1.79170670
C       -1.63847660       1.75515990       3.17559129
C       -2.44907966       2.56089642       3.97881172
C       -3.40940609       3.41194448       3.40889095
C       -3.55855660       3.42750869       2.01557482
C       -2.74874231       2.61999014       1.20811341
C       -4.25952956       4.22449382       4.28142312
N       -4.80892698       3.66509241       5.35861481
N       -5.49099879       4.65582962       5.97600411
C       -6.00131104       4.28705150       7.29501288
C       -7.38995772       3.70192622       7.28664661
C       -7.60679154       2.44128066       7.88241718
C       -8.88265551       1.89136252       7.94399464
C       -9.96823968       2.58628552       7.41875943
C       -9.77274558       3.83291950       6.82881456
C       -8.49415647       4.38925223       6.76441852
C       -5.46131105       5.87359938       5.29555819
C       -6.18393377       7.13827569       5.63383564
C       -6.59088111       7.50002709       6.92803170
C       -7.30028736       8.68339897       7.19294570
C       -7.57152202       9.57409110       6.16970274
Br      -8.48800477      11.18553301       6.53099904
C       -7.16813586       9.27584493       4.87655225
C       -6.50985455       8.06266829       4.61816267
C       -4.60065539       5.60325564       4.21998738
Cl      -3.97119830       6.67367387       3.04884190
H       -0.90265507       1.10430543       3.63899194
H       -2.33567473       2.51729393       5.06072636
H       -4.31750663       4.04832645       1.54412138
H       -2.87904725       2.63925092       0.12979500
H       -5.90556588       5.10976788       7.99221724
H       -5.29402165       3.53875181       7.68384430
H       -6.77065417       1.88286334       8.29753366
H       -9.03012474       0.91759977       8.40158489
H      -10.96420766       2.15619585       7.46593994
H      -10.62171596       4.37601012       6.41458958
H       -8.38223110       5.36231752       6.29582202
H       -6.38142195       6.89566080       7.79840902
H       -7.62067720       8.89535422       8.21011075
H       -7.36000594       9.96324208       4.06255806
H       -6.26486059       7.86153561       3.57719682
C        1.79170670      -1.79170670       1.79170670
C        2.77750257      -2.58378023       1.20794499
C        3.57987804      -3.39127552       2.01763424
C        3.41067457      -3.40823188       3.41133507
C        2.40627141      -2.61427507       3.98109364
C        1.59955611      -1.80520348       3.17208626
C        4.25225779      -4.28520136       4.22798735
N        4.45721307      -5.54135707       3.83406406
N        5.29211694      -6.07933843       4.75137714
C        5.79955592      -7.39984009       4.38397942
C        4.95720718      -8.55064649       4.87067689
C        4.49048457      -9.50157688       3.93842794
C        3.75662427     -10.60735973       4.35402868
C        3.47673733     -10.79159113       5.70495617
C        3.93142429      -9.86382750       6.63922785
C        4.66834635      -8.75221933       6.22726154
C        5.61050381      -5.21804114       5.80192367
C        6.41404327      -5.51427617       7.02772567
C        7.40639859      -6.50430803       7.10823328
C        8.11148245      -6.77146783       8.29368174
C        7.88300164      -6.00786527       9.42444895
Br       8.86000406      -6.33771698      11.00681579
C        6.93084408      -4.99984347       9.38984549
C        6.19418887      -4.78217513       8.21432152
C        4.97897761      -4.02342007       5.42150074
Cl       5.06277154      -2.48168616       6.14925637
H        2.92643931      -2.58748133       0.13203182
H        4.33882020      -4.01993916       1.55493566
H        2.22483443      -2.63142457       5.05369548
H        0.82189773      -1.19864143       3.62755400
H        6.84089433      -7.50624262       4.66041406
H        5.82498044      -7.40797061       3.28366670
H        4.69854066      -9.37415502       2.87835547
H        3.40097101     -11.32636056       3.62197782
H        2.90273512     -11.65449117       6.02911716
H        3.70990381     -10.00580435       7.69660749
H        5.00410843      -8.05101499       6.98524723
H        7.69179978      -7.11756757       6.26612443
H        8.84490584      -7.57403038       8.30720594
H        6.74349393      -4.38288318      10.25942897
H        5.42613385      -4.01297948       8.26447970
C       -0.00445707       0.01189536      -1.78238275
H       -0.66409135       0.67374010      -2.43557963
H        0.65740317      -0.63156657      -2.45157240
C       -0.90989263      -0.90692880      -0.91072765
C        0.90977584       0.90977584      -0.90977584
C       -0.00465871       1.77757030       0.00794375
H       -0.66225468       2.44313916      -0.64384735
H        0.64322798       2.43503045       0.67728295
C       -1.78241447       0.00034974      -0.00472694
H       -2.45427497      -0.65498947       0.64260836
H       -2.43311707       0.67328779      -0.65473579
C       -0.91132561       0.90220522       0.91563759
C       -0.01476271      -0.02253852       1.78660255
H       -0.67934791      -0.69751639       2.42135241
H        0.63392994       0.61504881       2.47327442
C        0.01484550      -1.77751727      -0.01636693
H        0.67870853      -2.42144646      -0.68295456
H       -0.62264859      -2.45592969       0.64226336
C        1.78714474       0.01002794       0.00389507
H        2.44202412       0.67113390       0.66197326
H        2.45385902      -0.65136977      -0.64189061
C        0.91606151      -0.90478549       0.90901405
