186
Properties=species:S:1:pos:R:3 pbc="F F F"
C        5.22786464      12.26645009      -2.65182174
C        4.41666736      11.01317259      -2.80180711
C        5.00556366       9.85670395      -3.32635085
C        4.26463267       8.67893466      -3.45148733
C        2.91344120       8.65448779      -3.07986699
C        2.32786792       9.80066332      -2.52869672
C        3.08156993      10.96904678      -2.38445426
N        2.16732949       7.45189022      -3.25019860
N        2.82176917       6.26635731      -3.17852831
C        1.86131236       5.33274847      -3.10250920
C        2.21854935       3.93426165      -2.84785577
C        3.40165941       3.40147896      -3.38434170
C        3.77059805       2.07698255      -3.13423385
C        2.96098389       1.26830925      -2.33939099
C        1.79248750       1.79248750      -1.79248750
C        1.42064398       3.11672873      -2.03431098
C        0.59136770       5.91985557      -3.34784804
Cl      -0.88168429       5.08225761      -3.54986609
C        0.80403614       7.28336836      -3.48766495
C       -0.13053654       8.33535275      -3.91646228
C        0.21007372       9.21172055      -4.96081428
C       -0.66914761      10.21544297      -5.37159007
C       -1.91562379      10.34044239      -4.76036308
C       -2.27160081       9.46168831      -3.73935158
Br      -3.97185852       9.61240880      -2.92889963
C       -1.38655673       8.46990726      -3.31094128
H        5.97744138      12.13667892      -1.86474682
H        4.59726600      13.12156782      -2.38816294
H        5.73180667      12.50683180      -3.59388098
H        6.04344120       9.86745332      -3.64580226
H        4.74479765       7.79696885      -3.87054938
H        1.30703763       9.80175847      -2.16227665
H        2.61548815      11.84683614      -1.93813132
H        4.04885720       4.02428884      -4.00132891
H        4.69076843       1.68201465      -3.55573457
H        3.25280003       0.23935929      -2.14688530
H        0.52040994       3.50785827      -1.56983073
H        1.16954519       9.12631696      -5.46708170
H       -0.38360461      10.89576907      -6.16858234
H       -2.60115363      11.11719887      -5.09064787
H       -1.68256110       7.80186958      -2.50514669
C       -1.37106479     -11.21743313      -7.55763855
C       -1.28044306      -9.76708394      -7.18412007
C       -2.40497058      -9.10203810      -6.68160978
C       -2.32597573      -7.75707297      -6.31200597
C       -1.12450742      -7.05293071      -6.47035785
C        0.01013928      -7.72120394      -6.94616329
C       -0.06984052      -9.07323893      -7.29199151
N       -1.07693885      -5.67185979      -6.12061967
N       -1.90214818      -5.22092522      -5.14358140
C       -1.46209009      -3.98914656      -4.84533338
C       -2.03072981      -3.26498635      -3.70495061
C       -3.39135619      -3.40722425      -3.38889963
C       -3.94692559      -2.74262596      -2.29226289
C       -3.14584080      -1.92884014      -1.49400319
C       -1.79248750      -1.79248750      -1.79248750
C       -1.22992261      -2.45788628      -2.88387481
C       -0.48798373      -3.57745470      -5.79363287
Cl       0.19177170      -2.01763123      -5.92457987
C       -0.27848848      -4.65485983      -6.64172114
C        0.49374882      -4.72312463      -7.89190268
C       -0.09172918      -5.22364703      -9.06723234
C        0.63497804      -5.29570246     -10.25716100
C        1.95248090      -4.84221946     -10.29544312
C        2.53443393      -4.32308068      -9.14079232
Br       4.31112919      -3.68238978      -9.19818932
C        1.81795305      -4.26903435      -7.94321050
H       -1.49040084     -11.83006706      -6.65839922
H       -0.47130880     -11.55154901      -8.08413895
H       -2.22386595     -11.38470710      -8.22394640
H       -3.35083011      -9.62585338      -6.58001329
H       -3.21765140      -7.26220614      -5.93245833
H        0.97554599      -7.23169301      -7.01492573
H        0.82648493      -9.58244916      -7.64449138
H       -4.02849896      -4.04654275      -3.99943323
H       -5.00131702      -2.86603361      -2.06116702
H       -3.58231471      -1.41506231      -0.64166759
H       -0.16564059      -2.35774209      -3.07471626
H       -1.12372423      -5.56884598      -9.07037363
H        0.17325778      -5.70142061     -11.15258396
H        2.51118667      -4.89083921     -11.22704057
H        2.29662548      -3.86892939      -7.05215127
C       -5.83142471       2.23965700      12.07505476
C       -5.67910038       1.93970506      10.61284162
C       -5.50544560       2.98498680       9.69818606
C       -5.34260259       2.71535317       8.33709891
C       -5.38226645       1.39393254       7.87159699
C       -5.52762756       0.34361497       8.78598543
C       -5.66648788       0.61924134      10.14934174
N       -5.25019999       1.14493919       6.47427912
N       -4.52697712       2.01405998       5.72561769
C       -4.34830348       1.40416948       4.54409708
C       -3.46153761       1.99903233       3.54009682
C       -3.38649146       3.39469973       3.40628888
C       -2.53040186       3.98115061       2.47026198
C       -1.73404387       3.17725525       1.65738501
C       -1.79248750       1.79248750       1.79248750
C       -2.64205572       1.20022192       2.72940605
C       -5.15081390       0.23425083       4.47400658
Cl      -5.39503715      -0.73644008       3.09184234
C       -5.76580040       0.09932903       5.70994002
C       -6.82368702      -0.83250286       6.13009434
C       -7.99456519      -0.35513197       6.74317533
C       -9.00190921      -1.23267155       7.14864777
C       -8.86426714      -2.60110954       6.92202407
C       -7.71701523      -3.08176785       6.29419170
Br      -7.54155943      -4.93349077       5.96138124
C       -6.69752413      -2.20959137       5.90635905
H       -4.88565884       2.61031348      12.48289480
H       -6.12202993       1.34691790      12.63804893
H       -6.61057025       2.99378269      12.22816650
H       -5.50136720       4.01597882      10.03935076
H       -5.21816787       3.54728990       7.64685811
H       -5.49084817      -0.69480297       8.47502755
H       -5.76157759      -0.21029962      10.84917764
H       -3.99748503       4.03641042       4.04057950
H       -2.48359030       5.06299299       2.38193436
H       -1.06910635       3.63810643       0.93183183
H       -2.64434018       0.11942141       2.83433735
H       -8.13607706       0.70971134       6.91715545
H       -9.89304809      -0.84923425       7.63693296
H       -9.65604633      -3.27966333       7.23031011
H       -5.80657825      -2.60910674       5.42698366
C        6.32782459      -1.94355983      11.87475205
C        6.11539965      -1.70799694      10.40825046
C        5.84409236      -2.78642398       9.55810213
C        5.62489038      -2.57562024       8.19454404
C        5.70511305      -1.28231534       7.66036760
C        5.94843030      -0.19742419       8.51137347
C        6.14353371      -0.41286220       9.87867506
N        5.51373949      -1.09545221       6.26022661
N        4.71138774      -1.96180687       5.59346018
C        4.50225212      -1.40201363       4.39230429
C        3.53705086      -1.99887540       3.46474050
C        3.38710770      -3.39371152       3.40666085
C        2.45640976      -3.98043694       2.54496775
C        1.65957121      -3.17736789       1.73174503
C        1.79248750      -1.79248750       1.79248750
C        2.71701049      -1.19958330       2.65508990
C        5.35631661      -0.27970742       4.22304728
Cl       5.57633510       0.60843907       2.78254337
C        6.03986351      -0.11632668       5.41887926
C        7.16221913       0.77932781       5.73838718
C        8.33832529       0.27294988       6.31723314
C        9.40685767       1.11632863       6.62735638
C        9.32479471       2.47731885       6.33770581
C        8.17165790       2.98504083       5.74282201
Br       8.07003873       4.82485278       5.32426396
C        7.09217765       2.14849802       5.45061219
H        5.38728422      -2.24474778      12.34683513
H        6.69026078      -1.04048798      12.37624800
H        7.07602088      -2.72834427      12.02815430
H        5.80716976      -3.79793695       9.95159007
H        5.42463862      -3.43280120       7.55487606
H        5.94651324       0.82507197       8.14963148
H        6.31489035       0.44390600      10.52947126
H        3.99779729      -4.03420628       4.04247138
H        2.35230470      -5.06146647       2.51474648
H        0.93649870      -3.63834687       1.06419905
H        2.77750290      -0.11649330       2.70410273
H        8.43638033      -0.78798178       6.53858174
H       10.30210637       0.71192457       7.09056500
H       10.16358570       3.12854104       6.57164845
H        6.19836512       2.56936519       4.99545524
C       -0.00445707       0.01189536      -1.78238275
H       -0.66409135       0.67374010      -2.43557963
H        0.65740317      -0.63156657      -2.45157240
C       -0.90989263      -0.90692880      -0.91072765
C        0.90977584       0.90977584      -0.90977584
C       -0.00465871       1.77757030       0.00794375
H       -0.66225468       2.44313916      -0.64384735
H        0.64322798       2.43503045       0.67728295
C       -1.78241447       0.00034974      -0.00472694
H       -2.45427497      -0.65498947       0.64260836
H       -2.43311707       0.67328779      -0.65473579
C       -0.91132561       0.90220522       0.91563759
C       -0.01476271      -0.02253852       1.78660255
H       -0.67934791      -0.69751639       2.42135241
H        0.63392994       0.61504881       2.47327442
C        0.01484550      -1.77751727      -0.01636693
H        0.67870853      -2.42144646      -0.68295456
H       -0.62264859      -2.45592969       0.64226336
C        1.78714474       0.01002794       0.00389507
H        2.44202412       0.67113390       0.66197326
H        2.45385902      -0.65136977      -0.64189061
C        0.91606151      -0.90478549       0.90901405
