194
Properties=species:S:1:pos:R:3 pbc="F F F"
C        5.22786464      12.26645009      -2.65182174
C        4.41666736      11.01317259      -2.80180711
C        5.00556366       9.85670395      -3.32635085
C        4.26463267       8.67893466      -3.45148733
C        2.91344120       8.65448779      -3.07986699
C        2.32786792       9.80066332      -2.52869672
C        3.08156993      10.96904678      -2.38445426
N        2.16732949       7.45189022      -3.25019860
N        2.82176917       6.26635731      -3.17852831
C        1.86131236       5.33274847      -3.10250920
C        2.21854935       3.93426165      -2.84785577
C        3.40165941       3.40147896      -3.38434170
C        3.77059805       2.07698255      -3.13423385
C        2.96098389       1.26830925      -2.33939099
C        1.79248750       1.79248750      -1.79248750
C        1.42064398       3.11672873      -2.03431098
C        0.59136770       5.91985557      -3.34784804
Cl      -0.88168429       5.08225761      -3.54986609
C        0.80403614       7.28336836      -3.48766495
C       -0.13053654       8.33535275      -3.91646228
C        0.21007372       9.21172055      -4.96081428
C       -0.66914761      10.21544297      -5.37159007
C       -1.91562379      10.34044239      -4.76036308
C       -2.27160081       9.46168831      -3.73935158
C       -1.38655673       8.46990726      -3.31094128
H        5.97744138      12.13667892      -1.86474682
H        4.59726600      13.12156782      -2.38816294
H        5.73180667      12.50683180      -3.59388098
H        6.04344120       9.86745332      -3.64580226
H        4.74479765       7.79696885      -3.87054938
H        1.30703763       9.80175847      -2.16227665
H        2.61548815      11.84683614      -1.93813132
H        4.04885720       4.02428884      -4.00132891
H        4.69076843       1.68201465      -3.55573457
H        3.25280003       0.23935929      -2.14688530
H        0.52040994       3.50785827      -1.56983073
H        1.16954519       9.12631696      -5.46708170
H       -0.38360461      10.89576907      -6.16858234
H       -2.60115363      11.11719887      -5.09064787
H       -1.68256110       7.80186958      -2.50514669
C       -3.56733903       9.57654990      -3.12171958
C       -4.65251979       9.67274648      -2.60445279
Br      -6.40716530       9.82828821      -1.76807613
C       -1.04132023     -10.34208383      -8.76273242
C       -1.07179412      -8.94600369      -8.21384925
C       -2.18979055      -8.49864358      -7.50018434
C       -2.21994234      -7.20737836      -6.96773397
C       -1.14030786      -6.33693506      -7.17055306
C       -0.00844335      -6.78924697      -7.85953764
C        0.02470685      -8.09037307      -8.36940474
N       -1.20822944      -5.01196916      -6.64921970
N       -1.94388981      -4.79110463      -5.53166036
C       -1.61487343      -3.55519280      -5.12650381
C       -2.10823278      -3.05049624      -3.84193775
C       -3.38918163      -3.40726213      -3.39103631
C       -3.86851670      -2.95436710      -2.15893064
C       -3.06928602      -2.14045085      -1.35894727
C       -1.79248750      -1.79248750      -1.79248750
C       -1.30547905      -2.24585740      -3.02034724
C       -0.82940336      -2.91060041      -6.11906753
Cl      -0.35943480      -1.27005483      -6.12094978
C       -0.60973747      -3.84457211      -7.12075987
C       -0.00694452      -3.66392336      -8.45041061
C       -0.68032087      -4.09701743      -9.60527025
C       -0.11393604      -3.93314396     -10.87080543
C        1.12501185      -3.30808826     -11.00210527
C        1.79001399      -2.85472490      -9.86472817
C        1.23680664      -3.03586538      -8.59523307
H       -0.96846827     -11.06572793      -7.94467093
H       -0.18632411     -10.49062068      -9.43005197
H       -1.94937316     -10.54183187      -9.34131441
H       -3.04634411      -9.15116895      -7.35918372
H       -3.10515463      -6.88240912      -6.42475213
H        0.87569173      -6.17173152      -7.97503296
H        0.91974460      -8.43199922      -8.88820098
H       -4.02255230      -4.04964837      -4.00227427
H       -4.86145444      -3.24220149      -1.82486172
H       -3.44611301      -1.79178874      -0.40114287
H       -0.29477101      -1.98430681      -3.31902112
H       -1.65633166      -4.57290378      -9.53370841
H       -0.63953223      -4.28918260     -11.75203197
H        1.55745280      -3.17347416     -11.99067176
H        1.77916687      -2.68260181      -7.72102023
C        3.06010189      -2.18997584     -10.00105650
C        4.12380050      -1.63324849     -10.11523148
Br       5.84371120      -0.73306747     -10.29984277
C       -1.03238225      10.29677976       8.81697446
C       -1.06777231       8.90412379       8.25975097
C       -2.18415465       8.46748874       7.53697507
C       -2.21870823       7.17954648       6.99679995
C       -1.14537058       6.30162421       7.20080119
C       -0.01494715       6.74327339       7.89900741
C        0.02279454       8.04119021       8.41667530
N       -1.21795418       4.98013899       6.67132514
N       -1.94832694       4.77010434       5.54822351
C       -1.62414811       3.53466708       5.13775485
C       -2.11290307       3.04036315       3.84740054
C       -3.38908716       3.40725071       3.39114220
C       -3.86382396       2.96435870       2.15363178
C       -3.06467442       2.15044734       1.35356237
C       -1.79248750       1.79248750       1.79248750
C       -1.31004993       2.23583413       3.02579963
C       -0.84827715       2.87971071       6.13108345
Cl      -0.38789381       1.23645599       6.12608960
C       -0.62904752       3.80652714       7.13949480
C       -0.03511985       3.61460517       8.47155347
C       -0.71271780       4.04490223       9.62498853
C       -0.15472353       3.87034188      10.89282001
C        1.07977089       3.23728187      11.02767069
C        1.74877436       2.78666344       9.89154999
C        1.20408093       2.97843606       8.61993669
H       -0.95052257      11.02473840       8.00360615
H       -0.18046065      10.43641303       9.49012308
H       -1.94263111      10.49847155       9.39141679
H       -3.03605090       9.12583304       7.39481284
H       -3.10260158       6.86293950       6.44677480
H        0.86488313       6.11992480       8.01603109
H        0.91675178       8.37453686       8.94267054
H       -4.02227559       4.04976559       4.00243376
H       -4.85309305       3.25994857       1.81547602
H       -3.43790686       1.80958584       0.39155192
H       -0.30265058       1.96662924       3.32881912
H       -1.68550328       4.52690902       9.55053156
H       -0.68339172       4.22431433      11.77304075
H        1.50561945       3.09437853      12.01793403
H        1.74948765       2.62709947       7.74684336
C        3.01414700       2.11369965      10.03137780
C        4.07389658       1.55009247      10.14848359
Br       5.78742203       0.63878733      10.33783375
C        3.86100731     -12.46219603       3.82293313
C        3.26221202     -11.08770407       3.88173097
C        4.07873449      -9.97850167       4.13138230
C        3.53443340      -8.69236217       4.16825909
C        2.15754458      -8.50517996       3.98507144
C        1.34145902      -9.60847035       3.70729858
C        1.89650360     -10.89005613       3.64851124
N        1.61871493      -7.18778162       4.06292175
N        2.40890750      -6.14176920       3.71597810
C        1.58480944      -5.08705949       3.62470110
C        2.08440234      -3.81067193       3.10559249
C        3.39894240      -3.40384256       3.38469511
C        3.90061693      -2.20104653       2.88015099
C        3.09321305      -1.39033982       2.08513126
C        1.79248750      -1.79248750       1.79248750
C        1.28669541      -2.99570288       2.28928540
C        0.30172025      -5.42674090       4.13061016
Cl      -0.99273193      -4.34689065       4.39628068
C        0.34604764      -6.77479561       4.45422620
C       -0.64336496      -7.59719669       5.16744677
C       -0.26434350      -8.36585914       6.28109291
C       -1.19590276      -9.15228105       6.96150713
C       -2.52868131      -9.16047393       6.55338906
C       -2.91871037      -8.38386485       5.46428460
C       -1.98587561      -7.61244550       4.76772192
H        4.48712915     -12.56119664       2.93054133
H        3.08606394     -13.23454576       3.78638706
H        4.47021976     -12.64869568       4.71360401
H        5.14282760     -10.10979547       4.30407371
H        4.19052160      -7.84876674       4.37302754
H        0.28498758      -9.49785829       3.48822688
H        1.25044131     -11.73551118       3.41450311
H        4.04468046      -4.03130669       3.99848779
H        4.92103562      -1.90303294       3.10444908
H        3.48831574      -0.45651336       1.69421552
H        0.27949216      -3.29897508       2.01963170
H        0.76574942      -8.36525371       6.63194072
H       -0.88318231      -9.75421204       7.80971707
H       -3.25263890      -9.76656706       7.09276496
H       -2.31189454      -7.02207508       3.91427464
C       -4.29929704      -8.37521745       5.05501004
C       -5.45553838      -8.36797525       4.71224260
Br      -7.32508283      -8.35626524       4.15801663
C       -0.00445707       0.01189536      -1.78238275
H       -0.66409135       0.67374010      -2.43557963
H        0.65740317      -0.63156657      -2.45157240
C       -0.90989263      -0.90692880      -0.91072765
C        0.90977584       0.90977584      -0.90977584
C       -0.00465871       1.77757030       0.00794375
H       -0.66225468       2.44313916      -0.64384735
H        0.64322798       2.43503045       0.67728295
C       -1.78241447       0.00034974      -0.00472694
H       -2.45427497      -0.65498947       0.64260836
H       -2.43311707       0.67328779      -0.65473579
C       -0.91132561       0.90220522       0.91563759
C       -0.01476271      -0.02253852       1.78660255
H       -0.67934791      -0.69751639       2.42135241
H        0.63392994       0.61504881       2.47327442
C        0.01484550      -1.77751727      -0.01636693
H        0.67870853      -2.42144646      -0.68295456
H       -0.62264859      -2.45592969       0.64226336
C        1.78714474       0.01002794       0.00389507
H        2.44202412       0.67113390       0.66197326
H        2.45385902      -0.65136977      -0.64189061
C        0.91606151      -0.90478549       0.90901405
