173
Properties=species:S:1:pos:R:3 pbc="F F F"
C        0.00000000       0.00000000       0.00000000
C        4.31796061      11.35654607      -1.74191772
C        3.50676333      10.10326857      -1.89190309
C        4.09565964       8.94679993      -2.41644682
C        3.35472865       7.76903063      -2.54158331
C        2.00353718       7.74458376      -2.16996297
C        1.41796389       8.89075929      -1.61879270
C        2.17166590      10.05914276      -1.47455023
N        1.25742547       6.54198619      -2.34029457
N        1.91186515       5.35645329      -2.26862429
C        0.95140834       4.42284445      -2.19260518
C        1.30864532       3.02435763      -1.93795174
C        2.49175539       2.49157493      -2.47443767
C        2.86069402       1.16707852      -2.22432983
C        2.05107986       0.35840522      -1.42948697
C        0.88258347       0.88258347      -0.88258347
C        0.51073995       2.20682471      -1.12440696
C       -0.31853632       5.00995154      -2.43794401
Cl      -1.79158832       4.17235359      -2.63996207
C       -0.10586788       6.37346433      -2.57776093
C       -1.04044056       7.42544873      -3.00655826
C       -0.69983031       8.30181653      -4.05091025
C       -1.57905164       9.30553895      -4.46168604
C       -2.82552782       9.43053837      -3.85045905
C       -3.18150484       8.55178429      -2.82944755
C       -2.29646075       7.56000324      -2.40103725
H        5.06753736      11.22677490      -0.95484279
H        3.68736198      12.21166380      -1.47825891
H        4.82190264      11.59692778      -2.68397695
H        5.13353718       8.95754929      -2.73589824
H        3.83489363       6.88706483      -2.96064536
H        0.39713361       8.89185444      -1.25237263
H        1.70558413      10.93693211      -1.02822730
H        3.13895317       3.11438481      -3.09142488
H        3.78086440       0.77211062      -2.64583055
H        2.34289600      -0.67054473      -1.23698127
H       -0.38949408       2.59795424      -0.65992671
H        0.25964116       8.21641294      -4.55717768
H       -1.29350864       9.98586505      -5.25867832
H       -3.51105765      10.20729485      -4.18074385
H       -2.59246512       6.89196555      -1.59524267
C       -4.47724306       8.66664588      -2.21181556
C       -5.56242382       8.76284245      -1.69454877
Br      -7.31706933       8.91838418      -0.85817211
C       -0.06198388      -8.84759482      -8.50684569
C       -0.14826359      -7.49917405      -7.85449735
C       -1.23822653      -7.18714891      -7.03353096
C       -1.31813470      -5.94183193      -6.40537596
C       -0.31970263      -4.98125292      -6.61712836
C        0.78624219      -5.29888254      -7.41487554
C        0.87150354      -6.55535325      -8.02150918
N       -0.44035361      -3.70445823      -5.99489439
N       -1.10409768      -3.61725355      -4.81559148
C       -0.83236725      -2.39135333      -4.34313738
C       -1.26231422      -2.01530504      -2.99333543
C       -2.47816065      -2.49713513      -2.48247222
C       -2.89447548      -2.16792911      -1.18969778
C       -2.09620828      -1.35414163      -0.38862214
C       -0.88258347      -0.88258347      -0.88258347
C       -0.45828534      -1.21198393      -2.17170235
C       -0.16983493      -1.62257104      -5.33695326
Cl       0.18363502       0.04463835      -5.24900071
C        0.03876561      -2.46572858      -6.41839441
C        0.52662450      -2.14870323      -7.76948769
C       -0.19937541      -2.54961787      -8.90390320
C        0.25821567      -2.25644985     -10.18993917
C        1.43750784      -1.53305405     -10.35992340
C        2.15246483      -1.11138693      -9.24080490
C        1.70947708      -1.42102333      -7.95303349
H        0.12179733      -9.61883206      -7.75212032
H        0.74905988      -8.88520288      -9.24114168
H       -0.99462423      -9.07390959      -9.03427356
H       -2.03448520      -7.91000141      -6.88249810
H       -2.18076866      -5.72233289      -5.77950226
H        1.61427338      -4.61056970      -7.54506436
H        1.74687363      -6.79236832      -8.62524885
H       -3.10925325      -3.14101116      -3.09449846
H       -3.83731834      -2.55157641      -0.80991083
H       -2.42378672      -1.10192806       0.61638224
H        0.50670226      -0.85561467      -2.51947445
H       -1.13191688      -3.10084697      -8.80046793
H       -0.30569923      -2.58867905     -11.05665645
H        1.78455850      -1.29822209     -11.36331745
H        2.28973783      -1.08981641      -7.09466452
C        3.35960336      -0.34583101      -9.41499073
C        4.37058187       0.29532208      -9.56087136
Br       6.00524863       1.33201239      -9.79674799
C       -0.29386138       9.97067200       7.15189102
C       -0.25655724       8.53814756       6.70723018
C       -1.38491483       7.95956386       6.11442771
C       -1.35412198       6.63256113       5.67865948
C       -0.19958188       5.85881456       5.85968747
C        0.94044201       6.44142295       6.42653495
C        0.91027897       7.77672262       6.83891524
N       -0.20299502       4.49646632       5.44024490
N       -0.99698947       4.13942486       4.40052839
C       -0.60418409       2.90263315       4.06004072
C       -1.14737454       2.26772930       2.85585085
C       -2.48052549       2.49740133       2.47984117
C       -3.01000273       1.91901314       1.32308650
C       -2.20970506       1.10511928       0.52414772
C       -0.88258347       0.88258347       0.88258347
C       -0.34581162       1.46166372       2.03449627
C        0.29651568       2.39291470       5.03296021
Cl       0.88921462       0.79472640       5.11521555
C        0.51471020       3.41378975       5.94627782
C        1.22221629       3.37826574       7.23551697
C        0.60128409       3.84939619       8.40478438
C        1.26675751       3.82308557       9.63184529
C        2.55595825       3.29922471       9.71220315
C        3.17134669       2.80867547       8.56239822
C        2.51738134       2.85279082       7.32917025
H       -0.33457049      10.63313826       6.28144629
H        0.59243763      10.22988687       7.73983544
H       -1.17122397      10.14913526       7.78244815
H       -2.29658225       8.53709836       5.99330409
H       -2.24820405       6.20521710       5.22918266
H        1.87506320       5.89871661       6.51770728
H        1.81114881       8.21948417       7.26240818
H       -3.11615206       3.13805016       3.09056065
H       -4.04317146       2.10944708       1.04618704
H       -2.62574812       0.65858585      -0.37500143
H        0.70051795       1.29592965       2.27297517
H       -0.41079639       4.24808509       8.37435030
H        0.77929324       4.20717538      10.52315259
H        3.06635992       3.27139539      10.67194556
H        3.02180377       2.47318380       6.44336307
C        4.49490255       2.24792690       8.64819403
C        5.60338058       1.77829996       8.72004802
Br       7.39569581       1.01895293       8.83622984
C        4.26180274     -11.37132803       1.78329364
C        3.45882177     -10.11246031       1.93065292
C        4.05751905      -8.95642666       2.44496068
C        3.32421586      -7.77362165       2.56750508
C        1.97103328      -7.74341682       2.20363381
C        1.37556274      -8.88933248       1.66262067
C        2.12157918     -10.06293831       1.52084141
N        1.23295945      -6.53549043       2.37125635
N        1.89387002      -5.35425493       2.28881777
C        0.93844468      -4.41548739       2.21292589
C        1.30233124      -3.02062900       1.94799445
C        2.49165486      -2.49167593       2.47443721
C        2.86683784      -1.17084755       2.21441698
C        2.05730484      -0.36208808       1.41957913
C        0.88258347      -0.88258347       0.88258347
C        0.50444860      -2.20318795       1.13433507
C       -0.33344123      -4.99369425       2.46910621
Cl      -1.80037318      -4.14630603       2.67479448
C       -0.12791153      -6.35759253       2.61567638
C       -1.06607182      -7.40155818       3.05608006
C       -0.72445785      -8.27380363       4.10355070
C       -1.60709295      -9.26993874       4.52532756
C       -2.85784085      -9.39118666       3.92212380
C       -3.21467023      -8.51632875       2.89806848
C       -2.32638566      -7.53227159       2.45869381
H        5.00749371     -11.25054825       0.99111310
H        3.62469227     -12.22425504       1.52833738
H        4.76985174     -11.60916377       2.72379186
H        5.09717227      -8.97140082       2.75841162
H        3.81196597      -6.89205878       2.97857906
H        0.35261160      -8.88657633       1.30217275
H        1.64777623     -10.94056646       1.08240084
H        3.13881765      -3.11466282       3.09128239
H        3.79175257      -0.77883274       2.62822026
H        2.35398231       0.66399227       1.21934250
H       -0.40076020      -2.59173212       0.67741495
H        0.23844857      -8.19107874       4.60370447
H       -1.32085209      -9.94726871       5.32461810
H       -3.54593964     -10.16196917       4.26095150
H       -2.62321083      -6.86721958       1.65073434
C       -4.51465694      -8.62718756       2.28868776
C       -5.60339582      -8.72003181       1.77833141
Br      -7.36379450      -8.87015312       0.95312835
