194
Properties=species:S:1:pos:R:3 pbc="F F F"
C        4.72962159      11.83815641      -5.76863826
C        4.75099539      10.34601024      -5.61708592
C        4.53065199       9.76438583      -4.36475439
C        4.57098314       8.37636207      -4.21237164
C        4.87287036       7.54889288      -5.30547414
C        5.08620674       8.12858914      -6.56062073
C        5.03113347       9.51885221      -6.71057983
N        4.92407880       6.13602432      -5.10692485
N        4.20084701       5.60800670      -4.08569387
C        4.23684875       4.28128554      -4.26011837
C        3.41404074       3.40869043      -3.41537813
C        3.16872342       3.75240585      -2.07618178
C        2.36267777       2.94702122      -1.26531885
C        1.79144774       1.79144774      -1.79144774
C        2.01115164       1.43967414      -3.12065965
C        2.81323221       2.25046645      -3.93105767
C        5.16144585       3.95183470      -5.28448788
Cl       5.68301959       2.38140447      -5.70491279
C        5.61184135       5.15145887      -5.81753469
C        6.65665390       5.37220625      -6.82748669
C        7.73357305       6.23663294      -6.57910750
C        8.72258282       6.44212013      -7.54678076
C        8.65637627       5.75928786      -8.75852588
C        7.60920959       4.87905023      -9.01450446
C        6.61031421       4.69213820      -8.05392284
H        3.93014945      12.27610150      -5.16167489
H        4.54435966      12.12742676      -6.80840675
H        5.68893843      12.26017439      -5.45308957
H        4.32290478      10.38757655      -3.49735707
H        4.39373304       7.95472684      -3.22417803
H        5.25606654       7.52980022      -7.45041092
H        5.19835728       9.95139955      -7.69511705
H        3.60102134       4.65972189      -1.65759975
H        2.18460895       3.23546918      -0.23291907
H        1.55786207       0.54536992      -3.54049812
H        2.94014743       1.97014054      -4.97357645
H        7.81336626       6.76850516      -5.63262539
H        9.53768562       7.13092286      -7.34131458
H        7.55869984       4.33245963      -9.95280334
H        5.79696616       4.00498967      -8.27603364
C        9.67866473       5.96317964      -9.75198168
C       10.53483131       6.13393901     -10.58400092
Br      11.91918027       6.41004246     -11.92930566
C       -3.16554954      -8.58376330     -10.58710340
C       -3.55557044      -7.76869441      -9.38982668
C       -2.69232346      -7.67350523      -8.29396352
C       -3.05878091      -6.93413780      -7.16679813
C       -4.31466234      -6.31017555      -7.10239949
C       -5.17648342      -6.39813451      -8.20079867
C       -4.79880430      -7.12874193      -9.33301927
N       -4.66162463      -5.57930801      -5.92609532
N       -3.65453961      -5.06897572      -5.17103224
C       -4.23944692      -4.25544200      -4.28336373
C       -3.41678156      -3.41044501      -3.41088273
C       -2.17132963      -3.87136011      -2.95462130
C       -1.36151329      -3.06728394      -2.14622061
C       -1.79144774      -1.79144774      -1.79144774
C       -3.01706092      -1.31015455      -2.24426996
C       -3.82242149      -2.11464901      -3.05768584
C       -5.64880487      -4.40730541      -4.34165815
Cl      -6.78164202      -3.72753615      -3.26015868
C       -5.91453390      -5.27272770      -5.39357331
C       -7.20380671      -5.84268322      -5.80985692
C       -7.37264949      -7.22872267      -5.94794132
C       -8.60280462      -7.76236586      -6.34631324
C       -9.68157969      -6.91329384      -6.57931647
C       -9.54108432      -5.53738271      -6.42429726
C       -8.30423744      -5.00508263      -6.04705517
H       -2.10240078      -8.45138337     -10.81414169
H       -3.72847829      -8.27688648     -11.47482841
H       -3.36048837      -9.64399505     -10.39771898
H       -1.72548456      -8.17237364      -8.30998020
H       -2.36337822      -6.87855108      -6.33070861
H       -6.12948474      -5.87837242      -8.22842051
H       -5.48201524      -7.18456982     -10.17828881
H       -1.82014745      -4.86293975      -3.23525578
H       -0.40020563      -3.44461159      -1.80817998
H       -3.35251666      -0.31035465      -1.98085880
H       -4.75834548      -1.70105782      -3.42446111
H       -6.54708478      -7.91176637      -5.75564565
H       -8.70638728      -8.83754283      -6.46599294
H      -10.38271776      -4.86994055      -6.59130450
H       -8.21342756      -3.92671927      -5.93784264
C      -10.95091704      -7.46209397      -6.98081504
C      -12.01398708      -7.92171407      -7.31707010
Br     -13.73288141      -8.66488090      -7.86076609
C      -11.19868309       3.52516872       7.61256444
C       -9.86434581       3.84377677       7.00596896
C       -8.87618735       2.85772339       6.92588147
C       -7.62385760       3.15363524       6.38222400
C       -7.32675291       4.45446805       5.94601642
C       -8.31659740       5.44032174       6.01849746
C       -9.57404917       5.13509736       6.55141898
N       -6.02955627       4.72354543       5.41392626
N       -5.33757048       3.69147834       4.86549875
C       -4.28480924       4.24348567       4.24995774
C       -3.41012201       3.41673714       3.41125014
C       -3.17178518       2.07511996       3.75040591
C       -2.36413784       1.26481250       2.94606750
C       -1.79144774       1.79144774       1.79144774
C       -2.02600420       3.11550878       1.42997244
C       -2.83917118       3.92206204       2.23352312
C       -4.19509039       5.61961981       4.58305823
Cl      -2.90460266       6.66846736       4.19626684
C       -5.31527212       5.92038485       5.34517793
C       -5.64852647       7.17710513       6.03071525
C       -5.95177224       7.19703575       7.40050550
C       -6.26952602       8.39750049       8.04445722
C       -6.25556895       9.59112549       7.32749556
C       -5.93366434       9.59558330       5.97351665
C       -5.63767230       8.39123490       5.32746803
H      -11.53053190       2.52586342       7.31153052
H      -11.96343170       4.23547371       7.28128777
H      -11.13263816       3.56521534       8.70434890
H       -9.07440561       1.84953731       7.28389548
H       -6.87662117       2.36311281       6.33290393
H       -8.16012313       6.44328454       5.63287001
H      -10.33179797       5.91484060       6.59823530
H       -3.62373075       1.64972413       4.64488810
H       -2.19698992       0.22862535       3.22738193
H       -1.59175847       3.52874286       0.52322879
H       -3.03269684       4.94148032       1.90968724
H       -5.95319909       6.27773107       7.98356664
H       -6.52037651       8.38771692       9.10182964
H       -5.90756224      10.52541760       5.41098296
H       -5.39516780       8.41537725       4.26744442
C       -6.57378900      10.82875211       7.99128494
C       -6.84029830      11.86526441       8.54720854
Br      -7.27122128      13.54121713       9.44608999
C       11.59441781      -6.72426660       4.01773184
C       10.14836445      -6.36843799       4.19728910
C        9.69677893      -5.08391592       3.87909737
C        8.35580104      -4.73924515       4.06467065
C        7.45215499      -5.66452887       4.61055352
C        7.90054727      -6.95239690       4.92247243
C        9.24200033      -7.29676238       4.72180279
N        6.09378377      -5.26975608       4.80348811
N        5.59830636      -4.28023012       4.01601109
C        4.27774638      -4.26581161       4.23469467
C        3.40861923      -3.41462342       3.41486665
C        3.87391485      -2.17434943       2.94904677
C        3.06909797      -1.36365755       2.14226232
C        1.79144774      -1.79144774       1.79144774
C        1.31592245      -3.02387881       2.23168417
C        2.12556968      -3.83533017       3.03385649
C        3.95728295      -5.11685986       5.32362562
Cl       2.43399708      -5.25262580       6.08271397
C        5.13444468      -5.75107769       5.69531254
C        5.37316404      -6.64881579       6.83436700
C        6.40038295      -6.39351798       7.75541256
C        6.62153906      -7.25430056       8.83564410
C        5.79547129      -8.36026760       9.01845110
C        4.75586530      -8.61729869       8.12960031
C        4.55076845      -7.76721946       7.03838734
H       11.98853531      -6.28345939       3.09593114
H       11.72856049      -7.80849849       3.94313420
H       12.17860113      -6.35649667       4.86710460
H       10.38532998      -4.34128968       3.48121874
H        8.03569040      -3.73116434       3.80578317
H        7.22811333      -7.72493383       5.28323052
H        9.57190751      -8.30394627       4.96902009
H        4.87552114      -1.83501917       3.20780267
H        3.45239302      -0.40940361       1.79120057
H        0.32408607      -3.36874775       1.95089629
H        1.74204316      -4.80679183       3.33502942
H        7.04800331      -5.52608143       7.64041206
H        7.43507832      -7.04861672       9.52622802
H        4.09876425      -9.47115575       8.27404280
H        3.73709601      -7.98928510       6.35160836
C        6.01651598      -9.24218459      10.13512548
C        6.20164090      -9.98079007      11.07034028
Br       6.50097224     -11.17505266      12.58250350
C       -0.00445707       0.01189536      -1.78238275
H       -0.66409135       0.67374010      -2.43557963
H        0.65740317      -0.63156657      -2.45157240
C       -0.90989263      -0.90692880      -0.91072765
C        0.90977584       0.90977584      -0.90977584
C       -0.00465871       1.77757030       0.00794375
H       -0.66225468       2.44313916      -0.64384735
H        0.64322798       2.43503045       0.67728295
C       -1.78241447       0.00034974      -0.00472694
H       -2.45427497      -0.65498947       0.64260836
H       -2.43311707       0.67328779      -0.65473579
C       -0.91132561       0.90220522       0.91563759
C       -0.01476271      -0.02253852       1.78660255
H       -0.67934791      -0.69751639       2.42135241
H        0.63392994       0.61504881       2.47327442
C        0.01484550      -1.77751727      -0.01636693
H        0.67870853      -2.42144646      -0.68295456
H       -0.62264859      -2.45592969       0.64226336
C        1.78714474       0.01002794       0.00389507
H        2.44202412       0.67113390       0.66197326
H        2.45385902      -0.65136977      -0.64189061
C        0.91606151      -0.90478549       0.90901405
