69
Properties=species:S:1:pos:R:3 pbc="F F F"
C        0.00000000       0.00000000       0.00000000
C        0.89218232       0.89218232      -0.89218232
C        0.63576370       2.26384393      -0.82953680
C        1.38655877       3.14413849      -1.59580215
C        2.39719822       2.65640072      -2.42761396
Br       3.35489915       3.96912591      -3.42815324
C        2.68261812       1.26770749      -2.51384147
C        3.69939356       0.73319614      -3.34497080
C        3.96019181      -0.63530209      -3.41185364
C        3.21126626      -1.51302458      -2.64824794
C        2.20350203      -1.01995333      -1.81970310
C        1.91251229       0.36473972      -1.72771087
H       -0.14820745       2.65532563      -0.18566554
H        1.17762586       4.20980920      -1.53875438
H        4.31418368       1.38333880      -3.96347046
H        4.74822346      -1.00845760      -4.06088858
H        3.40577907      -2.58149262      -2.69263526
H        1.64200187      -1.74824936      -1.23876322
C       -0.89218232      -0.89218232      -0.89218232
C       -0.98980094      -2.23153276      -0.50781073
C       -1.76874556      -3.10927104      -1.24848281
C       -2.45364692      -2.65115217      -2.37641382
Br      -3.48843836      -3.95697171      -3.30676823
C       -2.37500800      -1.29569797      -2.79346111
C       -3.05463978      -0.79173034      -3.93119038
C       -2.96113585       0.54443201      -4.32003952
C       -2.18407797       1.41944237      -3.58185402
C       -1.50256737       0.95601499      -2.45669940
C       -1.57605102      -0.39531616      -2.03359570
H       -0.46140206      -2.59973386       0.36835220
H       -1.83694894      -4.14968962      -0.93955088
H       -3.67721312      -1.44105169      -4.54272814
H       -3.49681149       0.89473293      -5.19857588
H       -2.10390976       2.46279854      -3.87581049
H       -0.90471723       1.68090171      -1.90870021
C       -0.89218232       0.89218232       0.89218232
C       -2.20487864       0.45057777       1.07368802
C       -3.08049998       1.18669615       1.85930327
C       -2.64688458       2.36731188       2.46701645
Br      -3.94692416       3.28517249       3.52008165
C       -1.31884143       2.84320899       2.30211666
C       -0.84021460       4.03549491       2.90185099
C        0.46927358       4.48161972       2.72439722
C        1.34213939       3.74794699       1.94068202
C        0.90325021       2.57001896       1.33648305
C       -0.42062304       2.08801902       1.49632081
H       -2.55384678      -0.46691117       0.60584811
H       -4.10006150       0.83295306       1.99317488
H       -1.48892959       4.64580134       3.52626202
H        0.80060803       5.40099425       3.20026822
H        2.36480792       4.08629740       1.79543224
H        1.62538340       2.02787378       0.73002535
C        0.89218232      -0.89218232       0.89218232
C        2.22924874      -0.99786177       0.50203392
C        3.10678614      -1.77751532       1.24219795
C        2.65093400      -2.45441689       2.37586202
Br       3.95606005      -3.49165580       3.30446244
C        1.29780848      -2.36755956       2.79879905
C        0.79635634      -3.03831361       3.94289056
C       -0.53752110      -2.93674570       4.33751875
C       -1.41256817      -2.15981738       3.59924041
C       -0.95144417      -1.48643594       2.46826002
C        0.39768392      -1.56769466       2.03958430
H        2.59573442      -0.47551698      -0.37846768
H        4.14535544      -1.85224524       0.92858877
H        1.44579490      -3.66047330       4.55472475
H       -0.88592746      -3.46573502       5.22084687
H       -2.45421737      -2.07362492       3.89751417
H       -1.67623493      -0.88824715       1.92050351
