102
Properties=species:S:1:pos:R:3 pbc="F F F"
C        1.82173581       1.82173581      -1.82173581
C        1.52075923       3.28784440      -1.56810452
O        2.37680193       4.06351595      -2.40938392
C        2.33266385       5.42180771      -2.25807201
C        1.46332298       6.12731870      -1.42426189
C        1.53151905       7.52357706      -1.35691210
C        2.46682805       8.21186468      -2.12713334
C        3.33243552       7.51883097      -2.96774204
C        3.26122552       6.12539459      -3.03173028
H        1.62961438       1.54414065      -2.86267059
H        2.86376958       1.57956214      -1.59077110
H        1.71109102       3.52405208      -0.51394742
H        0.47224024       3.50019851      -1.80869465
H        0.71961985       5.62584106      -0.81347468
H        0.85173558       8.06147240      -0.70139041
H        4.06377556       8.04670894      -3.57370457
H        3.93802137       5.58234804      -3.68722395
C        2.53788018       9.64814910      -2.05204243
C        2.59738634      10.85103731      -1.98915379
Br       2.69360277      12.79600580      -1.88746818
C       -1.82173581      -1.82173581      -1.82173581
C       -0.97265057      -2.57238908      -2.83166850
O       -1.84447192      -3.38475768      -3.62047220
C       -1.26029326      -4.22294740      -4.52930291
C        0.10236586      -4.29303086      -4.82423857
C        0.57028602      -5.20799223      -5.77430200
C       -0.32664732      -6.04852814      -6.43065061
C       -1.68787240      -5.98103022      -6.15010592
C       -2.15060273      -5.06669412      -5.20105353
H       -2.55257607      -1.17155303      -2.31229651
H       -2.36329660      -2.50777410      -1.16303213
H       -0.24477656      -3.20063543      -2.30367854
H       -0.44398696      -1.86046237      -3.47668407
H        0.82945855      -3.65180880      -4.33658534
H        1.63383409      -5.25563195      -5.99280053
H       -2.39529520      -6.63081566      -6.65807822
H       -3.21402404      -5.01378452      -4.97978480
C        0.15835875      -6.99228752      -7.40414295
C        0.56455134      -7.78268600      -8.21944278
Br       1.22133041      -9.06069350      -9.53771366
C       -1.82173581       1.82173581       1.82173581
C       -3.26190400       1.34460986       1.77019430
O       -4.03693285       2.19628826       2.61648069
C       -5.35371648       1.87028740       2.78853969
C       -6.03514584       0.83741924       2.14233849
C       -7.38717509       0.60527564       2.41955748
C       -8.05618510       1.40967923       3.33996174
C       -7.38845448       2.44710836       3.98344569
C       -6.03908870       2.67516165       3.70410004
H       -1.72394192       2.85056263       1.46192106
H       -1.41939853       1.77617166       2.83853263
H       -3.31739266       0.30776132       2.12393654
H       -3.63718313       1.40244018       0.74151010
H       -5.54838494       0.19365072       1.41689993
H       -7.90598642      -0.20409858       1.91271055
H       -7.90198610       3.08102895       4.70117402
H       -5.51559404       3.48472552       4.20727379
C       -9.44601921       1.16530846       3.62674405
C      -10.61000527       0.96064794       3.86692423
Br     -12.49207228       0.62972919       4.25527527
C        1.82173581      -1.82173581       1.82173581
C        1.96133077      -1.21094798       3.20442941
O        2.78525931      -2.07826124       3.98618125
C        2.95215723      -1.75586954       5.30451681
C        2.46907822      -0.60892989       5.93689546
C        2.70450647      -0.40601060       7.30149115
C        3.42646917      -1.34918452       8.03017238
C        3.91952648      -2.49180712       7.40767494
C        3.68205668      -2.69057659       6.04571712
H        2.79133722      -1.92090089       1.32418750
H        1.35744921      -2.81189444       1.86475918
H        0.97013461      -1.11461590       3.66434002
H        2.42934152      -0.22213837       3.12965351
H        1.90683926       0.14896422       5.40106056
H        2.32030679       0.48913094       7.78342255
H        4.48529147      -3.23199579       7.96690182
H        4.06561910      -3.58378475       5.55818950
C        3.66291860      -1.14001157       9.43514155
C        3.86094500      -0.96482922      10.61180322
Br       4.18113694      -0.68157419      12.51436563
C       -0.00445707       0.01189536      -1.78238275
H       -0.66409135       0.67374010      -2.43557963
H        0.65740317      -0.63156657      -2.45157240
C       -0.90989263      -0.90692880      -0.91072765
C        0.90977584       0.90977584      -0.90977584
C       -0.00465871       1.77757030       0.00794375
H       -0.66225468       2.44313916      -0.64384735
H        0.64322798       2.43503045       0.67728295
C       -1.78241447       0.00034974      -0.00472694
H       -2.45427497      -0.65498947       0.64260836
H       -2.43311707       0.67328779      -0.65473579
C       -0.91132561       0.90220522       0.91563759
C       -0.01476271      -0.02253852       1.78660255
H       -0.67934791      -0.69751639       2.42135241
H        0.63392994       0.61504881       2.47327442
C        0.01484550      -1.77751727      -0.01636693
H        0.67870853      -2.42144646      -0.68295456
H       -0.62264859      -2.45592969       0.64226336
C        1.78714474       0.01002794       0.00389507
H        2.44202412       0.67113390       0.66197326
H        2.45385902      -0.65136977      -0.64189061
C        0.91606151      -0.90478549       0.90901405
