182
Properties=species:S:1:pos:R:3 pbc="F F F"
O        3.07317753       8.69298480      -8.20114410
C        2.57046077       7.57266865      -8.12744460
C        2.49973730       6.80814292      -6.82381484
C        3.56429020       5.71473033      -6.74049226
C        4.94424199       6.28061265      -6.38999007
C        6.05814271       5.24281403      -6.29845833
O        7.04191655       5.28031396      -7.03754633
N        5.96742746       4.27379860      -5.32643130
N        4.85580828       4.12436467      -4.56748708
C        4.77987541       3.06848838      -3.82375488
C        3.54992522       2.81119736      -3.11548113
C        2.37843169       3.54760109      -3.13623393
C        1.34328070       2.94263763      -2.36558971
C        1.78158403       1.78158403      -1.78158403
S        3.39777070       1.41462639      -2.14185881
N        2.07670124       6.95295847      -9.25047005
N        1.46539382       5.73471486      -9.20715493
C        1.13610945       5.23645159     -10.35817446
C        0.48582438       3.95319158     -10.44029679
C        0.02503731       3.13943338      -9.42088058
C       -0.54638139       1.92683093      -9.91339299
C       -0.48984535       1.87552676     -11.28314172
S        0.21159226       3.25208721     -11.97785450
H        1.50038314       6.36653684      -6.72779442
H        2.59571768       7.51664821      -5.99262391
H        3.63178732       5.14204191      -7.67195474
H        3.22674718       5.00946905      -5.97863439
H        4.91170760       6.82878964      -5.44132826
H        5.24391756       7.00143238      -7.16094546
H        6.71954423       3.59286889      -5.29912853
H        5.60825172       2.34136869      -3.74799974
H        2.26511018       4.46747325      -3.69943682
H        0.34237227       3.34397813      -2.26165869
H        2.16197230       7.46678438     -10.12144268
H        1.35414505       5.77164240     -11.30071723
H        0.09791415       3.40189019      -8.37119489
H       -0.96406957       1.14629356      -9.28906707
C       -0.97618841       0.76444202     -12.05938984
C       -1.38350073      -0.16609144     -12.70949763
Br      -2.04209029      -1.67068535     -13.76066696
O       -9.33470062      -3.24164864      -7.39095717
C       -9.08504635      -2.96750873      -6.21801894
C       -7.67252169      -2.72666463      -5.73250875
C       -7.11141052      -3.93096383      -4.97713843
C       -6.64782955      -5.04064828      -5.92636687
C       -6.08304859      -6.27873141      -5.23763508
O       -6.59923531      -7.38817597      -5.37236556
N       -4.93799694      -6.14180096      -4.48785945
N       -4.40032492      -4.92825675      -4.21907836
C       -3.44721228      -4.87930265      -3.34560374
C       -2.95406971      -3.58743382      -2.93510018
C       -3.38806168      -2.33654745      -3.33765757
C       -2.71081703      -1.28242031      -2.65827071
C       -1.78158403      -1.78158403      -1.78158403
S       -1.71318313      -3.47615148      -1.76492128
N      -10.09302400      -2.90106979      -5.28603597
N       -9.86921455      -2.55083343      -3.98721563
C      -10.90153972      -2.62337793      -3.20581785
C      -10.78817457      -2.28022802      -1.81091015
C       -9.70980655      -1.74997234      -1.12557238
C       -9.98762655      -1.56983763       0.26362165
C      -11.26255044      -1.97455134       0.56827866
S      -12.12567791      -2.54119623      -0.77465983
H       -7.66858696      -1.84221332      -5.08391412
H       -7.04180937      -2.47105716      -6.59212328
H       -7.83878037      -4.33976821      -4.26723540
H       -6.27997685      -3.56029648      -4.37457729
H       -5.89115494      -4.66554822      -6.62512234
H       -7.49922956      -5.37460539      -6.53246045
H       -4.59429530      -6.98245098      -4.03479536
H       -3.03103115      -5.78931038      -2.87727862
H       -4.17344960      -2.18791948      -4.07065116
H       -2.90953265      -0.22831631      -2.81016013
H      -11.03000995      -3.09743402      -5.62275540
H      -11.88553147      -2.95923826      -3.58173494
H       -8.76542511      -1.50601518      -1.59955894
H       -9.28366882      -1.17225408       0.98463183
C      -11.81791557      -1.92570516       1.89597728
C      -12.28303386      -1.88479648       3.00792487
Br     -13.03509081      -1.81865060       4.80585009
O       -3.20700763       9.25549606       7.50480274
C       -2.57936227       8.19757324       7.49363851
C       -2.55872520       7.28853847       6.28443139
C       -3.48069377       6.08189558       6.45692344
C       -4.95093251       6.44269994       6.22121225
C       -5.92942458       5.28437990       6.38561059
O       -6.82195135       5.30459736       7.23322812
N       -5.82666386       4.21745524       5.52353827
N       -4.79629108       4.09859348       4.65277546
C       -4.67188304       2.97296003       4.02727560
C       -3.50572292       2.76724273       3.20363805
C       -2.44059244       3.62595420       2.99572005
C       -1.42990338       3.04802804       2.17357662
C       -1.78158403       1.78158403       1.78158403
S       -3.28906093       1.28541204       2.37978293
N       -1.89030235       7.78196610       8.60786131
N       -1.13996803       6.64335713       8.62393845
C       -0.62515440       6.33272387       9.77285723
C        0.18567387       5.15004077       9.91494586
C        0.62859852       4.27134981       8.94259998
C        1.39840232       3.20092752       9.49131733
C        1.50118959       3.31548147      10.85453125
S        0.71451897       4.68168430      11.47436863
H       -1.52885650       6.95211578       6.11374211
H       -2.83431752       7.87238196       5.39829031
H       -3.37213626       5.62634912       7.44729859
H       -3.14425252       5.32871778       5.74188032
H       -5.09280246       6.86804562       5.22097742
H       -5.25097683       7.21656043       6.93875814
H       -6.48599829       3.45918660       5.66635675
H       -5.40600229       2.15462067       4.13699719
H       -2.38144105       4.61592483       3.43465436
H       -0.50486880       3.54185300       1.90128729
H       -1.94195404       8.38807568       9.42016964
H       -0.80242529       6.95411057      10.66996881
H        0.40734037       4.39065471       7.88768489
H        1.83855173       2.39964555       8.91019724
C        2.20592070       2.37120585      11.68235830
C        2.79613300       1.58037502      12.37566345
Br       3.75045638       0.30166845      13.49667924
O        8.96456003      -3.11625069       7.88649571
C        8.78587097      -2.76288062       6.72182244
C        7.40073907      -2.59372596       6.13723003
C        7.00681878      -3.76922178       5.24347222
C        6.56671798      -4.98961970       6.05850702
C        6.16678438      -6.20468895       5.22794175
O        6.76417774      -7.27726464       5.31833447
N        5.07714320      -6.09484186       4.39567229
N        4.46006878      -4.90905260       4.17853864
C        3.57840666      -4.86075095       3.23296106
C        3.01003725      -3.58146220       2.88510425
C        3.30162564      -2.33941877       3.42122229
C        2.59214046      -1.28769013       2.77167746
C        1.78158403      -1.78158403       1.78158403
S        1.86069521      -3.46851940       1.62504128
N        9.85498702      -2.53697723       5.88816551
N        9.70538435      -2.09516152       4.60671775
C       10.79871531      -2.01831181       3.91370838
C       10.76701406      -1.56653012       2.54576857
C        9.70467572      -1.06631702       1.81435853
C       10.07504522      -0.74596544       0.47283186
C       11.40014698      -1.02080624       0.24786991
S       12.19980501      -1.63074429       1.61098467
H        7.37210407      -1.65987104       5.56273928
H        6.68433599      -2.46370887       6.95694494
H        7.82054268      -4.05661071       4.56863058
H        6.19689527      -3.41507881       4.60287653
H        5.72767079      -4.73706473       6.71708999
H        7.39303453      -5.30602759       6.70723329
H        4.84394527      -6.91797109       3.84962528
H        3.28039816      -5.75718641       2.66003557
H        4.01083932      -2.19268579       4.22849513
H        2.68682559      -0.23814465       3.02303885
H       10.77578958      -2.68679679       6.28761299
H       11.77509534      -2.30632220       4.34508713
H        8.70827441      -0.93953277       2.22319205
H        9.39878376      -0.34481594      -0.27230863
C       12.05258294      -0.81416622      -1.01910572
C       12.59899805      -0.64110522      -2.08019780
Br      13.48250508      -0.36128020      -3.79589396
C       -0.00445707       0.01189536      -1.78238275
H       -0.66409135       0.67374010      -2.43557963
H        0.65740317      -0.63156657      -2.45157240
C       -0.90989263      -0.90692880      -0.91072765
C        0.90977584       0.90977584      -0.90977584
C       -0.00465871       1.77757030       0.00794375
H       -0.66225468       2.44313916      -0.64384735
H        0.64322798       2.43503045       0.67728295
C       -1.78241447       0.00034974      -0.00472694
H       -2.45427497      -0.65498947       0.64260836
H       -2.43311707       0.67328779      -0.65473579
C       -0.91132561       0.90220522       0.91563759
C       -0.01476271      -0.02253852       1.78660255
H       -0.67934791      -0.69751639       2.42135241
H        0.63392994       0.61504881       2.47327442
C        0.01484550      -1.77751727      -0.01636693
H        0.67870853      -2.42144646      -0.68295456
H       -0.62264859      -2.45592969       0.64226336
C        1.78714474       0.01002794       0.00389507
H        2.44202412       0.67113390       0.66197326
H        2.45385902      -0.65136977      -0.64189061
C        0.91606151      -0.90478549       0.90901405
