161
Properties=species:S:1:pos:R:3 pbc="F F F"
C        0.00000000       0.00000000       0.00000000
F        3.45779785      11.13345902      -3.97440476
C        2.82073996       9.97740910      -3.74699432
C        1.51386080       9.99724006      -3.27540977
C        0.83492165       8.79391823      -3.05309493
C        1.47018786       7.57240523      -3.31568681
C        2.80934019       7.57189110      -3.75028087
C        3.47745838       8.77653577      -3.98045215
N        0.80105282       6.31903927      -3.15216331
N        1.55724735       5.22513261      -2.87320476
C        0.69458703       4.22628957      -2.64426843
C        1.18163038       2.92516544      -2.16415622
C        2.47990304       2.49382095      -2.48480725
C        2.96807950       1.27023278      -2.01576302
C        2.16471587       0.45793663      -1.21925509
C        0.88251446       0.88251446      -0.88251446
C        0.39573388       2.10953250      -1.33662761
C       -0.62289799       4.64770857      -2.96160791
Cl      -2.01555665       3.66259074      -3.04735772
C       -0.55447218       6.00508805      -3.24224549
C       -1.64780744       6.89989439      -3.64711535
C       -1.57990869       7.65763936      -4.82469302
C       -2.62942625       8.50873193      -5.18517240
C       -3.77521092       8.58162142      -4.39464950
C       -3.86388199       7.80694372      -3.24186761
C       -2.80746166       6.97936105      -2.86085591
H        1.03049823      10.94926506      -3.07871061
H       -0.16859414       8.84625176      -2.64429135
H        3.33264895       6.63774319      -3.94981097
H        4.49991487       8.78269350      -4.34430390
H        3.12652721       3.11745014      -3.09992625
H        3.97713344       0.95540181      -2.27036282
H        2.54760053      -0.49331823      -0.85944381
H       -0.59381685       2.42651995      -1.02025516
H       -0.70614649       7.60511968      -5.47149542
H       -2.55511091       9.10995342      -6.08837872
H       -4.59246873       9.23497258      -4.68863445
H       -2.89434555       6.38788544      -1.95158478
C       -5.05757477       7.85441752      -2.43785032
C       -6.05729247       7.89417682      -1.76448585
Br      -7.67375144       7.95846425      -0.67571244
F       -1.47015956      -7.24071157      -9.85479050
C       -1.32263653      -6.20884337      -9.01366347
C       -0.26812576      -5.32253920      -9.19584566
C       -0.11793352      -4.23132903      -8.33267226
C       -1.03614622      -4.02895198      -7.29318170
C       -2.07165228      -4.96253113      -7.09732875
C       -2.22214596      -6.04332020      -7.96898015
N       -0.95360595      -2.90147115      -6.41717830
N       -1.46145387      -3.03062319      -5.16350766
C       -1.14761507      -1.89980270      -4.51772725
C       -1.42126217      -1.77036680      -3.07932308
C       -2.47946826      -2.48552172      -2.49354125
C       -2.73829215      -2.39337497      -1.12240817
C       -1.94319839      -1.58327709      -0.31543212
C       -0.88251446      -0.88251446      -0.88251446
C       -0.61140800      -0.98220807      -2.24827792
C       -0.59228270      -0.96468876      -5.42944704
Cl      -0.25316876       0.68086251      -5.12208555
C       -0.42714969      -1.62913597      -6.63657568
C        0.09110899      -1.08897648      -7.90133481
C       -0.64750204      -1.16436564      -9.09055601
C       -0.12997080      -0.65062634     -10.28388094
C        1.11312307      -0.02001266     -10.29417041
C        1.83730618       0.08842564      -9.11066116
C        1.33998135      -0.44933015      -7.92340650
H        0.43511428      -5.48716699     -10.00642119
H        0.74069415      -3.58442929      -8.47821383
H       -2.79209131      -4.83811500      -6.28999680
H       -3.03630719      -6.74946573      -7.84113935
H       -3.10811626      -3.13018117      -3.10560618
H       -3.55867162      -2.95802551      -0.68620094
H       -2.15000813      -1.51281158       0.74909359
H        0.24896883      -0.45356280      -2.64836429
H       -1.62962798      -1.63309278      -9.10774785
H       -0.70165219      -0.73650582     -11.20506323
H        1.50257788       0.38901554     -11.22273171
H        1.92601407      -0.36031552      -7.01082322
C        3.10785138       0.76615054      -9.10869499
C        4.17193298       1.33374514      -9.10704832
Br       5.89246293       2.25149761      -9.10438580
F       -1.27309016       9.17962260       8.11294887
C       -1.03042661       8.01254024       7.50217652
C        0.24015165       7.45446627       7.57219600
C        0.49689564       6.22624215       6.95258830
C       -0.52942256       5.55712549       6.27173185
C       -1.79801453       6.15983451       6.17366312
C       -2.05039079       7.38053983       6.80351569
N       -0.32893276       4.27702214       5.66630050
N       -1.10645190       3.94725624       4.60187658
C       -0.63926123       2.77608599       4.14979781
C       -1.16541679       2.20278624       2.90274902
C       -2.47814297       2.48900074       2.49138753
C       -2.98634444       1.97224554       1.29548532
C       -2.18966072       1.15982225       0.49242462
C       -0.88251446       0.88251446       0.88251446
C       -0.36599495       1.40748267       2.06841636
C        0.33101751       2.26618237       5.05125362
Cl       1.03459590       0.71015059       5.01883712
C        0.55985266       3.25506484       5.99764917
C        1.46203260       3.20449387       7.15674102
C        1.00053811       3.44430236       8.45865944
C        1.87966010       3.39880245       9.54533572
C        3.22070621       3.07350350       9.34826271
C        3.67892573       2.80119647       8.06265860
C        2.81347039       2.87517214       6.97105356
H        1.02661319       7.97992148       8.10516561
H        1.51038842       5.84120945       6.99112794
H       -2.61093445       5.66934591       5.63992275
H       -3.03463924       7.83542489       6.75684814
H       -3.11469020       3.12812877       3.10108464
H       -4.00304228       2.20863320       0.99122259
H       -2.59001504       0.75838830      -0.43467722
H        0.67071055       1.20345974       2.32020907
H       -0.04553194       3.68056935       8.64436732
H        1.51508246       3.61043869      10.54786500
H        3.89488430       3.02659107      10.19943152
H        3.19419260       2.66599119       5.97332607
C        5.05602737       2.43416354       7.85655690
C        6.20934999       2.12677345       7.68394674
Br       8.07417512       1.62974968       7.40485069
F        4.23912736     -11.10732444       3.21920983
C        3.50581852     -10.00121903       3.03810582
C        2.26112874     -10.09737434       2.42800753
C        1.48076634      -8.94914543       2.25202304
C        1.95121806      -7.70711159       2.69995025
C        3.23354182      -7.62290586       3.27506448
C        4.00257507      -8.77435170       3.45751953
N        1.16938971      -6.51478741       2.58807829
N        1.82619653      -5.32849787       2.50089031
C        0.88688387      -4.39978631       2.27847485
C        1.27460988      -3.01298537       1.98335680
C        2.48093229      -2.49420350       2.48339544
C        2.87710061      -1.18519774       2.19177695
C        2.07209940      -0.37374009       1.39606810
C        0.88251446      -0.88251446       0.88251446
C        0.48955707      -2.19315903       1.15917789
C       -0.40183235      -4.97976220       2.40848864
Cl      -1.89472067      -4.15049447       2.43861801
C       -0.21445331      -6.34634857       2.56096609
C       -1.23866735      -7.38224036       2.75562929
C       -1.20439264      -8.25285723       3.85395909
C       -2.18565934      -9.23641287       4.01372454
C       -3.23407816      -9.33476299       3.10037517
C       -3.29315967      -8.45211038       2.02597864
C       -2.30051101      -7.48891391       1.84435240
H        1.90531640     -11.06510770       2.08804980
H        0.53358491      -9.05462999       1.73373407
H        3.63053378      -6.66926364       3.62040568
H        4.97922343      -8.72001145       3.92767740
H        3.12814163      -3.11466460       3.10109738
H        3.81637577      -0.80277261       2.58374969
H        2.38294563       0.64372503       1.17450552
H       -0.42415663      -2.56911863       0.70799625
H       -0.40884173      -8.18565244       4.59365789
H       -2.13520124      -9.92182143       4.85660105
H       -4.00050412     -10.09280258       3.23883983
H       -2.36175472      -6.81371730       0.99316209
C       -4.39041031      -8.52853346       1.09656993
C       -5.30935772      -8.59253779       0.31819013
Br      -6.79521796      -8.69602738      -0.94038417
