174
Properties=species:S:1:pos:R:3 pbc="F F F"
F        3.51535512      11.16129576      -7.29556951
C        3.78488856       9.92312411      -6.86311072
C        4.56681886       9.07845020      -7.64363781
C        4.86322351       7.78641079      -7.19426368
C        4.38268527       7.34928288      -5.95305515
C        3.56058698       8.20799359      -5.19525994
C        3.27322914       9.49751398      -5.64587453
N        4.67798756       6.05083803      -5.42830171
N        3.81297267       5.53555156      -4.51879898
C        4.21890297       4.28296458      -4.28303729
C        3.41080848       3.41072858      -3.41901632
C        2.65196518       3.96707672      -2.37588074
C        1.84595717       3.16319698      -1.56411676
C        1.79134688       1.79134688      -1.79134688
C        2.52724151       1.21971985      -2.82615397
C        3.32682638       2.02831698      -3.64199458
C        5.45309253       4.04434126      -4.93499069
Cl       6.44168082       2.66366249      -4.75467334
C        5.73825873       5.17946503      -5.68593920
C        6.94103236       5.45532933      -6.48419018
C        7.37002694       4.53002718      -7.44930799
C        8.53372284       4.75280896      -8.19117270
C        9.26929153       5.91591839      -7.98568679
Br      10.83395834       6.22773758      -8.99832204
C        8.86113682       6.84754916      -7.03425211
C        7.71165531       6.60817677      -6.27305921
H        4.93525792       9.42870165      -8.60322181
H        5.43575745       7.14021782      -7.85240992
H        3.15761383       7.89362801      -4.23306784
H        2.65859883      10.16740427      -5.05261764
H        2.67662981       5.04047581      -2.19487855
H        1.26411857       3.61992578      -0.76810521
H        2.47907333       0.15041249      -3.01554648
H        3.85911961       1.55749072      -4.46404779
H        6.80866367       3.61455780      -7.62758294
H        8.85576555       4.01196045      -8.91867656
H        9.43235462       7.75789081      -6.87066187
H        7.42597738       7.33864596      -5.51872972
F       -3.37362942     -11.00552094      -7.59307003
C       -3.67283213      -9.79641002      -7.10188124
C       -4.51675136      -8.95425397      -7.81790154
C       -4.84416844      -7.69306779      -7.30666174
C       -4.33180723      -7.28488883      -6.06832724
C       -3.44814696      -8.13860033      -5.37709321
C       -3.12990826      -9.39758278      -5.88912661
N       -4.65537851      -6.02013844      -5.48161035
N       -3.77525939      -5.50601905      -4.58604478
C       -4.21900291      -4.28042121      -4.28548072
C       -3.41113704      -3.41041562      -3.41900071
C       -2.59085292      -3.97561516      -2.42845455
C       -1.78453546      -3.17195175      -1.61678370
C       -1.79134688      -1.79134688      -1.79134688
C       -2.58896958      -1.21029917      -2.77384658
C       -3.38885538      -2.01826259      -3.59001997
C       -5.48628020      -4.06623783      -4.87990646
Cl      -6.51888370      -2.73373484      -4.60739811
C       -5.75749823      -5.18230727      -5.66385746
C       -6.97958472      -5.47500582      -6.42596134
C       -7.48149900      -4.53130577      -7.33655735
C       -8.66435552      -4.77160322      -8.04174576
C       -9.34629531      -5.96996015      -7.85464125
Br     -10.93685745      -6.30473392      -8.81842660
C       -8.86549059      -6.92028378      -6.95716372
C       -7.69669321      -6.66472183      -6.23147625
H       -4.90932817      -9.28198457      -8.77586865
H       -5.46658431      -7.04545565      -7.91634522
H       -3.01961614      -7.84543114      -4.41926240
H       -2.46712933     -10.06471173      -5.34677968
H       -2.56735856      -5.05527027      -2.28935534
H       -1.15458833      -3.63527643      -0.86228479
H       -2.58917269      -0.13347743      -2.92238218
H       -3.97090270      -1.53790358      -4.37185184
H       -6.96297566      -3.58816039      -7.49966836
H       -9.04302078      -4.01689926      -8.72648252
H       -9.39463148      -7.85813990      -6.80813593
H       -7.35366966      -7.41152760      -5.51815579
F      -11.21957307       3.57784555       7.17480176
C       -9.99784117       3.86500723       6.70827500
C       -9.65709069       5.18729173       6.44452444
C       -8.37838758       5.49799681       5.96751359
C       -7.43856317       4.47842002       5.76804011
C       -7.81698162       3.14130710       6.00555178
C       -9.09173461       2.83811425       6.48676880
N       -6.10732936       4.73856288       5.31123506
N       -5.45489039       3.72648017       4.68595266
C       -4.30433058       4.24181361       4.23876066
C       -3.41603223       3.41649556       3.40802558
C       -3.38136108       2.02390567       3.58965588
C       -2.57311888       1.21321982       2.78693220
C       -1.79134688       1.79134688       1.79134688
C       -1.81776173       3.16851837       1.58683523
C       -2.63401670       3.97631471       2.38680653
C       -4.14833892       5.56460862       4.71947695
Cl      -2.75119597       6.53554247       4.57327820
C       -5.31924063       5.88813930       5.39628304
C       -5.62260846       7.12040481       6.13753861
C       -5.46242681       8.36983371       5.51710160
C       -5.70592663       9.55574543       6.21603244
C       -6.13110862       9.50003878       7.53974931
Br      -6.47671804      11.10093865       8.48236127
C       -6.29751969       8.27134339       8.17407502
C       -6.02541692       7.08676527       7.48070910
H      -10.39318068       5.96946322       6.60453748
H       -8.16549488       6.53515613       5.72773417
H       -7.11545543       2.32318385       5.84567040
H       -9.37671286       1.81074499       6.69116289
H       -3.99700516       1.55772224       4.35725676
H       -2.56977737       0.13805047       2.94432171
H       -1.21815751       3.62401018       0.80286461
H       -2.66087297       5.04227004       2.17751511
H       -5.13255340       8.43640161       4.48184940
H       -5.55572416      10.51113448       5.71954391
H       -6.63002173       8.22294710       9.20793847
H       -6.13910656       6.13971819       8.00452831
F       11.28243809      -3.65248945       7.03729284
C       10.04750383      -3.92568764       6.59793192
C        9.67848049      -5.24605913       6.36436725
C        8.38598298      -5.54194519       5.91596981
C        7.46103079      -4.50918502       5.71480750
C        7.86749780      -3.17514235       5.92120035
C        9.15598884      -2.88661927       6.37400954
N        6.11728879      -4.75321048       5.28662803
N        5.47175987      -3.74075984       4.65480350
C        4.30425485      -4.24300377       4.23764623
C        3.41587852      -3.41663826       3.40803659
C        3.40936453      -2.02062942       3.56492869
C        2.60126617      -1.20984590       2.76215883
C        1.79134688      -1.79134688       1.79134688
C        1.78946667      -3.17220058       1.61144807
C        2.60557675      -3.98029020       2.41127099
C        4.13344536      -5.55395927       4.74501986
Cl       2.71677627      -6.50180614       4.64143423
C        5.31048997      -5.88658027       5.40659273
C        5.60523924      -7.11073187       6.16458077
C        5.41154646      -8.36791556       5.56990009
C        5.64650529      -9.54539599       6.28580322
C        6.09659011      -9.47381371       7.60049289
Br       6.43064799     -11.06365495       8.56571502
C        6.29639266      -8.23722217       8.20932326
C        6.03291745      -7.06045603       7.49951781
H       10.40328323      -6.03849397       6.52540419
H        8.15029859      -6.57917893       5.69890767
H        7.17789148      -2.34739295       5.75902525
H        9.46291793      -1.86111327       6.55458953
H        4.04707089      -1.55208555       4.31282772
H        2.61996793      -0.13215632       2.90002530
H        1.16768835      -3.63063975       0.84670420
H        2.60960367      -5.05012194       2.22093250
H        5.06178582      -8.44694020       4.54207839
H        5.47028634     -10.50660498       5.80951124
H        6.64843164      -8.17643578       9.23603989
H        6.17298307      -6.10643538       8.00393461
C       -0.00445707       0.01189536      -1.78238275
H       -0.66409135       0.67374010      -2.43557963
H        0.65740317      -0.63156657      -2.45157240
C       -0.90989263      -0.90692880      -0.91072765
C        0.90977584       0.90977584      -0.90977584
C       -0.00465871       1.77757030       0.00794375
H       -0.66225468       2.44313916      -0.64384735
H        0.64322798       2.43503045       0.67728295
C       -1.78241447       0.00034974      -0.00472694
H       -2.45427497      -0.65498947       0.64260836
H       -2.43311707       0.67328779      -0.65473579
C       -0.91132561       0.90220522       0.91563759
C       -0.01476271      -0.02253852       1.78660255
H       -0.67934791      -0.69751639       2.42135241
H        0.63392994       0.61504881       2.47327442
C        0.01484550      -1.77751727      -0.01636693
H        0.67870853      -2.42144646      -0.68295456
H       -0.62264859      -2.45592969       0.64226336
C        1.78714474       0.01002794       0.00389507
H        2.44202412       0.67113390       0.66197326
H        2.45385902      -0.65136977      -0.64189061
C        0.91606151      -0.90478549       0.90901405
