182
Properties=species:S:1:pos:R:3 pbc="F F F"
F        3.51535512      11.16129576      -7.29556951
C        3.78488856       9.92312411      -6.86311072
C        4.56681886       9.07845020      -7.64363781
C        4.86322351       7.78641079      -7.19426368
C        4.38268527       7.34928288      -5.95305515
C        3.56058698       8.20799359      -5.19525994
C        3.27322914       9.49751398      -5.64587453
N        4.67798756       6.05083803      -5.42830171
N        3.81297267       5.53555156      -4.51879898
C        4.21890297       4.28296458      -4.28303729
C        3.41080848       3.41072858      -3.41901632
C        2.65196518       3.96707672      -2.37588074
C        1.84595717       3.16319698      -1.56411676
C        1.79134688       1.79134688      -1.79134688
C        2.52724151       1.21971985      -2.82615397
C        3.32682638       2.02831698      -3.64199458
C        5.45309253       4.04434126      -4.93499069
Cl       6.44168082       2.66366249      -4.75467334
C        5.73825873       5.17946503      -5.68593920
C        6.94103236       5.45532933      -6.48419018
C        7.37002694       4.53002718      -7.44930799
C        8.53372284       4.75280896      -8.19117270
C        9.26929153       5.91591839      -7.98568679
C        8.86113682       6.84754916      -7.03425211
C        7.71165531       6.60817677      -6.27305921
H        4.93525792       9.42870165      -8.60322181
H        5.43575745       7.14021782      -7.85240992
H        3.15761383       7.89362801      -4.23306784
H        2.65859883      10.16740427      -5.05261764
H        2.67662981       5.04047581      -2.19487855
H        1.26411857       3.61992578      -0.76810521
H        2.47907333       0.15041249      -3.01554648
H        3.85911961       1.55749072      -4.46404779
H        6.80866367       3.61455780      -7.62758294
H        8.85576555       4.01196045      -8.91867656
H        9.43235462       7.75789081      -6.87066187
H        7.42597738       7.33864596      -5.51872972
C       10.46162833       6.15353671      -8.75735413
C       11.46021041       6.35254205      -9.40362552
Br      13.07483317       6.67431686     -10.44859170
F       -3.49003961     -11.13604414      -7.34613663
C       -3.76485319      -9.90256561      -6.90370460
C       -4.55749590      -9.05797209      -7.67343888
C       -4.85942234      -7.77091794      -7.21355770
C       -4.37355075      -7.33880207      -5.97267048
C       -3.54080011      -8.19701541      -5.22602499
C       -3.24794492      -9.48160251      -5.68707023
N       -4.67391694      -6.04583231      -5.43737805
N       -3.80630164      -5.53082378      -4.53019779
C       -4.21890626      -4.28253904      -4.28345955
C       -3.41086347      -3.41067448      -3.41901543
C       -2.64146477      -3.96883901      -2.38461886
C       -1.83540454      -3.16499711      -1.57286926
C       -1.79134688      -1.79134688      -1.79134688
C       -2.53784336      -1.21780676      -2.81746520
C       -3.33747669      -2.02629635      -3.63336490
C       -5.45894057      -4.04781793      -4.92566598
Cl      -6.45538988      -2.67494760      -4.72967916
C       -5.74159486      -5.17983434      -5.68223377
C       -6.94779409      -5.45840558      -6.47435220
C       -7.38927279      -4.52962881      -7.43046052
C       -8.55637176      -4.75523224      -8.16610050
C       -9.28287822      -5.92452591      -7.96349258
C       -8.86228757      -6.85967910      -7.02097142
C       -7.70938347      -6.61770751      -6.26580031
H       -4.92997722      -9.40432782      -8.63287635
H       -5.44055755      -7.12421396      -7.86361368
H       -3.13353236      -7.88633204      -4.26444528
H       -2.62498954     -10.15129573      -5.10233547
H       -2.65785205      -5.04354787      -2.21058425
H       -1.24529916      -3.62309220      -0.78375819
H       -2.49798226      -0.14697819      -3.00007185
H       -3.87830457      -1.55360402      -4.44874953
H       -6.83515125      -3.60929962      -7.60635354
H       -8.88811081      -4.01175763      -8.88653412
H       -9.42639443      -7.77484939      -6.85966349
H       -7.41389802      -7.35122136      -5.51823368
C      -10.47871680      -6.16495882      -8.72884355
C      -11.48023161      -6.36632139      -9.36982499
Br     -13.09959635      -6.69190762     -10.40623776
F      -11.24243499       3.60405665       7.12572875
C      -10.01590890       3.88632102       6.66889347
C       -9.66500734       5.20804394       6.41585559
C       -8.38129410       5.51355077       5.94905310
C       -7.44675079       4.48923732       5.74903519
C       -7.83524464       3.15309731       5.97549855
C       -9.11498691       2.85505001       6.44658073
N       -6.11096293       4.74371618       5.30244818
N       -5.46100150       3.73147444       4.67484727
C       -4.30430833       4.24223599       4.23836054
C       -3.41597768       3.41654680       3.40802890
C       -3.39139408       2.02262811       3.58090045
C       -2.58320308       1.21190703       2.77816080
C       -1.79134688       1.79134688       1.79134688
C       -1.80762579       3.16994110       1.59554843
C       -2.62383000       3.97784204       2.39546590
C       -4.14295169       5.56089360       4.72857919
Cl      -2.73870814       6.52372083       4.59758767
C       -5.31609480       5.88762258       5.39994559
C       -5.61633710       7.11704628       6.14716850
C       -5.44416503       8.36936372       5.53583337
C       -5.68456583       9.55232076       6.24081791
C       -6.11861638       9.49088126       7.56139907
C       -6.29697436       8.25924769       8.18671604
C       -6.02799910       7.07740427       7.48748791
H      -10.39709031       5.99390175       6.57618933
H       -8.16022495       6.55083066       5.71732957
H       -7.13795505       2.33151110       5.81484353
H       -9.40784796       1.82825081       6.64252196
H       -4.01494348       1.55551644       4.34152425
H       -2.58775940       0.13575285       2.92863730
H       -1.20007857       3.62656975       0.81838398
H       -2.64251201       5.04526639       2.19287971
H       -5.10720833       8.44043131       4.50316477
H       -5.52505373      10.50988122       5.75146761
H       -6.63643429       8.20637679       9.21809622
H       -6.15112259       6.12777517       8.00445529
C       -6.37879127      10.70787694       8.28585096
C       -6.59668775      11.72711082       8.89257942
Br      -6.94900791      13.37512580       9.87360802
F       11.29626521      -3.67005045       7.00590473
C       10.05841844      -3.93995625       6.57274871
C        9.68301648      -5.25974290       6.34614749
C        8.38747701      -5.55213594       5.90428502
C        7.46595186      -4.51640550       5.70266595
C        7.87874096      -3.18321387       5.90188567
C        9.17026198      -2.89814904       6.34820663
N        6.11946509      -4.75664451       5.28101770
N        5.47549937      -3.74414381       4.64768003
C        4.30423172      -4.24327832       4.23739481
C        3.41584306      -3.41667045       3.40803986
C        3.41570851      -2.02001414       3.55919999
C        2.60764315      -1.20920879       2.75641897
C        1.79134688      -1.79134688       1.79134688
C        1.78305475      -3.17290817       1.61715240
C        2.59913061      -3.98106480       2.41694253
C        4.13013398      -5.55142391       4.75086660
Cl       2.70916962      -6.49383885       4.65700817
C        5.30852063      -5.88617589       5.40896645
C        5.60136354      -7.10840956       6.17077878
C        5.40005967      -8.36721526       5.58208718
C        5.63313127      -9.54270483       6.30186840
C        6.08892317      -9.46758107       7.61439248
C        6.29631048      -8.22933426       8.21729335
C        6.03474520      -7.05441634       7.50372975
H       10.40521696      -6.05449158       6.50747284
H        8.14664243      -6.58927166       5.69247109
H        7.19187662      -2.35330101       5.73913204
H        9.48214147      -1.87318443       6.52329483
H        4.05841181      -1.55103652       4.30253584
H        2.63133835      -0.13104844       2.88976276
H        1.15625126      -3.63191610       0.85686493
H        2.59797961      -5.05167662       2.23100189
H        5.04574251      -8.44901696       4.55604494
H        5.45100444     -10.50512675       5.83027137
H        6.65282649      -8.16578444       9.24229638
H        6.18080576      -6.09891808       8.00362922
C        6.34154185     -10.67711055       8.35386678
C        6.55310999     -11.69009148       8.97317651
Br       6.89519779     -13.32799599       9.97454796
C       -0.00445707       0.01189536      -1.78238275
H       -0.66409135       0.67374010      -2.43557963
H        0.65740317      -0.63156657      -2.45157240
C       -0.90989263      -0.90692880      -0.91072765
C        0.90977584       0.90977584      -0.90977584
C       -0.00465871       1.77757030       0.00794375
H       -0.66225468       2.44313916      -0.64384735
H        0.64322798       2.43503045       0.67728295
C       -1.78241447       0.00034974      -0.00472694
H       -2.45427497      -0.65498947       0.64260836
H       -2.43311707       0.67328779      -0.65473579
C       -0.91132561       0.90220522       0.91563759
C       -0.01476271      -0.02253852       1.78660255
H       -0.67934791      -0.69751639       2.42135241
H        0.63392994       0.61504881       2.47327442
C        0.01484550      -1.77751727      -0.01636693
H        0.67870853      -2.42144646      -0.68295456
H       -0.62264859      -2.45592969       0.64226336
C        1.78714474       0.01002794       0.00389507
H        2.44202412       0.67113390       0.66197326
H        2.45385902      -0.65136977      -0.64189061
C        0.91606151      -0.90478549       0.90901405
