153
Properties=species:S:1:pos:R:3 pbc="F F F"
C        0.00000000       0.00000000       0.00000000
F        2.60545110      10.25139173      -6.38566548
C        2.87498454       9.01322009      -5.95320670
C        3.65691484       8.16854617      -6.73373379
C        3.95331948       6.87650677      -6.28435965
C        3.47278125       6.43937886      -5.04315113
C        2.65068295       7.29808956      -4.28535592
C        2.36332511       8.58760996      -4.73597051
N        3.76808353       5.14093401      -4.51839768
N        2.90306865       4.62564753      -3.60889496
C        3.30899895       3.37306056      -3.37313327
C        2.50090445       2.50082455      -2.50911229
C        1.74206115       3.05717270      -1.46597671
C        0.93605314       2.25329295      -0.65421274
C        0.88144286       0.88144286      -0.88144286
C        1.61733748       0.30981583      -1.91624994
C        2.41692236       1.11841296      -2.73209055
C        4.54318851       3.13443724      -4.02508667
Cl       5.53177679       1.75375846      -3.84476931
C        4.82835471       4.26956101      -4.77603517
C        6.03112834       4.54542531      -5.57428616
C        6.46012292       3.62012315      -6.53940397
C        7.62381882       3.84290493      -7.28126867
C        8.35938750       5.00601436      -7.07578277
Br       9.92405432       5.31783356      -8.08841801
C        7.95123280       5.93764513      -6.12434808
C        6.80175128       5.69827275      -5.36315519
H        4.02535390       8.51879763      -7.69331779
H        4.52585342       6.23031380      -6.94250589
H        2.24770980       6.98372399      -3.32316381
H        1.74869481       9.25750024      -4.14271361
H        1.76672578       4.13057178      -1.28497453
H        0.35421454       2.71002175       0.14179882
H        1.56916931      -0.75949153      -2.10564245
H        2.94921558       0.64758669      -3.55414377
H        5.89875964       2.70465378      -6.71767891
H        7.94586152       3.10205643      -8.00877254
H        8.52245060       6.84798679      -5.96075785
H        6.51607335       6.42874193      -4.60882570
F       -9.37180059      -2.09721629      -7.77349144
C       -8.34292035      -2.48767998      -7.01081100
C       -8.34796952      -3.76058708      -6.45063820
C       -7.27131682      -4.18144389      -5.66142520
C       -6.18365721      -3.32502323      -5.44663080
C       -6.21620493      -2.02556135      -5.99236216
C       -7.28994572      -1.61352432      -6.78343554
N       -5.04206821      -3.71095808      -4.67438894
N       -4.30711952      -2.71902061      -4.11147101
C       -3.39248338      -3.32022161      -3.34248778
C       -2.50764074      -2.50484290      -2.49835766
C       -2.14136626      -1.21290086      -2.91094344
C       -1.33162250      -0.40350457      -2.10843176
C       -0.88144286      -0.88144286      -0.88144286
C       -1.24049321      -2.15509033      -0.44781971
C       -2.05779277      -2.95970354      -1.24992956
C       -3.44374062      -4.72190648      -3.53706531
Cl      -2.33766905      -5.86916501      -2.92347051
C       -4.51868533      -4.97230074      -4.38296483
C       -4.94554339      -6.26231977      -4.94297664
C       -5.17117008      -7.35633026      -4.09214971
C       -5.53798585      -8.60325015      -4.60675642
C       -5.70074265      -8.76080708      -5.97963491
Br      -6.21230750     -10.44088853      -6.67710986
C       -5.48312860      -7.68860950      -6.84148791
C       -5.08815184      -6.44921853      -6.32580885
H       -9.19563987      -4.41643876      -6.62539068
H       -7.33330392      -5.16316995      -5.20219924
H       -5.39393388      -1.32911634      -5.83154738
H       -7.30554034      -0.62083674      -7.22253158
H       -2.49642111      -0.82250044      -3.86335055
H       -1.06830488       0.59438261      -2.44851521
H       -0.90141871      -2.52885655       0.51495504
H       -2.35085621      -3.93337835      -0.86671148
H       -5.05139929      -7.25472800      -3.01496504
H       -5.68778844      -9.43991819      -3.92898385
H       -5.60959554      -7.80689822      -7.91470148
H       -4.90026733      -5.63290848      -7.02046517
F       -2.69712505       6.21031506      10.33506821
C       -2.97883364       5.75456811       9.10800958
C       -4.30048512       5.50273713       8.75597254
C       -4.60540207       5.03708100       7.47170284
C       -3.58055902       4.83699792       6.53775429
C       -2.24453674       5.06221688       6.92737481
C       -1.94707336       5.53216096       8.20767126
N       -3.83439587       4.39155798       5.20146137
N       -2.82213819       3.76369564       4.55177731
C       -3.33237955       3.32841175       3.39440147
C       -2.50664851       2.49812529       2.50606751
C       -1.11258815       2.67000864       2.48261378
C       -0.30186314       1.86726716       1.67442854
C       -0.88144286       0.88144286       0.88144286
C       -2.26018929       0.68662755       0.89658640
C       -3.06810198       1.48653904       1.71278484
C       -4.65056656       3.81969804       3.23244781
Cl      -5.61247445       3.69041393       1.82741620
C       -4.97765780       4.49045393       4.40583916
C       -6.20675870       5.23834710       4.70573400
C       -7.45939207       4.62804011       4.53221786
C       -8.64201362       5.33370455       4.77227426
C       -8.57993512       6.65392771       5.20732181
Br     -10.17652105       7.60550930       5.54827554
C       -7.34798000       7.27822700       5.38701902
C       -6.16644730       6.57834037       5.11839154
H       -5.08675517       5.66310997       9.48760417
H       -5.64268899       4.80626549       7.24971864
H       -1.42256363       4.90147189       6.23056208
H       -0.92034474       5.72714998       8.50141394
H       -0.64537820       3.42984535       3.10704854
H        0.77439570       2.01696374       1.67986943
H       -2.71693969      -0.08976890       0.28814943
H       -4.13568534       1.28470973       1.73055097
H       -7.53096111       3.59566630       4.19446493
H       -9.59981134       4.84516049       4.61171865
H       -7.29461038       8.30932372       5.72726114
H       -5.21653477       7.09453346       5.24257275
F        6.06586709     -10.39945240       2.77718882
C        5.63866937      -9.15884498       3.04389697
C        5.41877895      -8.77734564       4.36307020
C        4.98319153      -7.47892324       4.65207113
C        4.78110894      -6.56069948       3.61350281
C        4.97341774      -6.97952982       2.28118087
C        5.41350845      -8.27392258       1.99947455
N        4.36572985      -5.21161635       3.85006902
N        3.73093259      -4.56914640       2.83753216
C        3.32725045      -3.39430344       3.33363888
C        2.49813923      -2.50590487       2.50679719
C        2.64376662      -2.51187802       1.10956592
C        1.84097467      -1.70384440       0.29873976
C        0.88144286      -0.88144286       0.88144286
C        0.71275494      -0.86701148       2.26363683
C        1.51251396      -1.68305408       3.07185782
C        3.84658134      -3.21708186       4.63904921
Cl       3.76206142      -1.79205067       5.57619248
C        4.50134843      -4.39673583       4.97586663
C        5.26683392      -4.68776993       6.19623594
C        4.68393057      -4.47917259       7.45654688
C        5.40743626      -4.71045426       8.63010191
C        6.71784447      -5.17173309       8.55160707
Br       7.69319661      -5.50081367      10.13629561
C        7.31501430      -5.38638897       7.31182275
C        6.59784079      -5.12663643       6.13870200
H        5.58040036      -9.49703883       5.16003012
H        4.77643805      -7.23316265       5.68907241
H        4.81008943      -6.29530527       1.44920290
H        5.58330474      -8.59053353       0.97507040
H        3.38269853      -3.15936485       0.64020872
H        1.96995328      -1.73232007      -0.77983587
H       -0.04323051      -0.23539641       2.72315433
H        1.33082050      -1.67694374       4.14318181
H        3.65962589      -4.12047506       7.54099138
H        4.94037629      -4.52266644       9.59364776
H        8.33834338      -5.74720921       7.24564265
H        7.09337244      -5.27844331       5.18182523
