173
Properties=species:S:1:pos:R:3 pbc="F F F"
C        0.00000000       0.00000000       0.00000000
C        0.88173922       0.88173922      -0.88173922
C        2.12019100       0.41080540      -1.31404154
C        2.92748105       1.21556771      -2.12545165
C        2.49528471       2.48872916      -2.51843733
C        1.25047415       2.95138690      -2.05963146
C        0.44412270       2.15200769      -1.24553963
C        3.30434268       3.34229447      -3.39228695
N        3.34392570       4.66458864      -3.17958674
N        4.06019498       5.16302841      -4.20603275
C        4.11281779       6.60502720      -4.36593132
N        2.98212533       7.09921694      -5.13331838
N        3.19025314       7.79392528      -6.27737932
C        1.95326883       8.09440335      -6.69043313
C        0.96497807       7.62321991      -5.80985970
Cl      -0.70680333       7.80029926      -5.97753577
C        1.65601786       7.00437028      -4.80084297
C        4.60258038       4.19229117      -5.01561910
C        5.46115480       4.46126188      -6.16685127
C        6.74660848       4.98958496      -5.98767457
C        7.57088291       5.23572404      -7.08949222
C        7.11613191       4.93836556      -8.37267092
C        5.84383660       4.40468581      -8.56504014
C        5.01662221       4.17264477      -7.46312073
C        4.08450024       2.99114297      -4.54040837
C        4.28543928       1.63383937      -5.11655467
H        2.46856440      -0.57669940      -1.02327608
H        3.89908614       0.83886721      -2.43180239
H        0.90082068       3.94297531      -2.34161886
H       -0.51640333       2.53060280      -0.90645010
H        5.04182758       6.89401648      -4.86187493
H        4.07940692       7.07274659      -3.37620651
H        1.82560796       8.64652202      -7.61243531
H        1.32822261       6.49604345      -3.90402826
H        7.12152827       5.20634072      -4.98979340
H        8.56334751       5.65145380      -6.93606526
H        5.48572266       4.16747804      -9.56330306
H        4.02215656       3.76196157      -7.62425179
H        3.36434768       1.04483566      -5.06128504
H        5.07386864       1.10450964      -4.57272037
H        4.57501212       1.67264274      -6.17010539
C        7.96984221       5.17841590      -9.50719926
C        8.68482459       5.37945807     -10.45736674
Br       9.84089062       5.70452624     -11.99370721
C       -0.88173922      -0.88173922      -0.88173922
C       -0.55331090      -2.22326707      -1.06845998
C       -1.36235895      -3.03365705      -1.87248441
C       -2.50940794      -2.51024193      -2.48280133
C       -2.81496035      -1.15179506      -2.29473710
C       -2.00653979      -0.33890388      -1.49622635
C       -3.39286379      -3.34092012      -3.30514018
N       -3.95064503      -2.82752106      -4.40993499
N       -4.78398928      -3.78603108      -4.85923577
C       -5.68981659      -3.45083413      -5.94312558
N       -6.91674918      -2.85014404      -5.44776744
N       -8.11282759      -3.42091930      -5.72781085
C       -8.99468685      -2.60445551      -5.13896295
C       -8.37595056      -1.50943788      -4.51266924
Cl      -9.14110171      -0.26301641      -3.66691358
C       -7.03604866      -1.67893125      -4.74625120
C       -4.69177344      -4.96386236      -4.15485485
C       -5.44770043      -6.17465854      -4.46690898
C       -5.18951552      -6.89122084      -5.64313165
C       -5.90591134      -8.05563804      -5.93454980
C       -6.87167822      -8.51452193      -5.04096824
C       -7.13277440      -7.81709832      -3.86368983
C       -6.42506958      -6.64583018      -3.58148795
C       -3.82757041      -4.68949902      -3.09898215
C       -3.45172577      -5.60034000      -1.98376755
H        0.32983489      -2.64712469      -0.59785128
H       -1.07551586      -4.07025717      -2.02398272
H       -3.69405037      -0.72077005      -2.77059443
H       -2.26575263       0.70797287      -1.36286980
H       -5.93149303      -4.34562193      -6.52060402
H       -5.20086396      -2.72545003      -6.60204602
H      -10.04941897      -2.84034144      -5.19480488
H       -6.17158163      -1.09353519      -4.46317750
H       -4.42358399      -6.55535021      -6.33872819
H       -5.69934049      -8.59798457      -6.85354151
H       -7.88223969      -8.17265775      -3.16160632
H       -6.64099477      -6.10459847      -2.66277669
H       -3.37907956      -5.05273645      -1.03865236
H       -2.48698519      -6.07383106      -2.19028240
H       -4.18821277      -6.39455642      -1.83499106
C       -7.60031080      -9.72163008      -5.33351649
C       -8.21054059     -10.73258315      -5.57852565
Br      -9.19723055     -12.36720877      -5.97468474
C       -0.88173922       0.88173922       0.88173922
C       -0.50994904       2.20103255       1.13405635
C       -1.31874610       3.01161253       1.93814177
C       -2.50831845       2.51125778       2.48287497
C       -2.85786091       1.17421322       2.22941839
C       -2.05000516       0.36095001       1.43071485
C       -3.39136250       3.34435266       3.30320894
N       -4.01183637       2.81167262       4.36459210
N       -4.82513016       3.78467333       4.81945266
C       -5.78547715       3.44455809       5.85374106
N       -7.01381526       2.91248895       5.28835645
N       -8.19738552       3.51923393       5.54493829
C       -9.08570784       2.76157680       4.89082067
C       -8.48487838       1.66757290       4.24560640
Cl      -9.26289456       0.48579435       3.32234278
C       -7.14982109       1.77461820       4.53679182
C       -4.66002967       4.98397354       4.16648744
C       -5.38092412       6.21104580       4.49729803
C       -5.14249404       6.87129028       5.71008369
C       -5.82487018       8.05127166       6.01995734
C       -6.73610547       8.58200594       5.10905698
C       -6.97666880       7.94102710       3.89586665
C       -6.30359868       6.75419835       3.59459068
C       -3.76565948       4.71603967       3.13435242
C       -3.31123778       5.65318705       2.07140849
H        0.40676249       2.60713067       0.71477290
H       -0.99873453       4.02944168       2.14157953
H       -3.77100547       0.76059676       2.65381262
H       -2.34354252      -0.66893195       1.24603899
H       -6.01553457       4.32551494       6.45666948
H       -5.35119048       2.67565304       6.50151650
H      -10.13203708       3.03689437       4.91563383
H       -6.29779601       1.16657199       4.26392632
H       -4.41821758       6.47889402       6.42055079
H       -5.63441064       8.54945055       6.96700538
H       -7.68349357       8.35267566       3.18033454
H       -6.50336685       6.25749370       2.64750938
H       -3.22206776       5.13965898       1.10874164
H       -2.33807375       6.07971469       2.33331021
H       -4.01032889       6.48115737       1.92627398
C       -7.42911270       9.80505650       5.42128818
C       -8.00950624      10.82936134       5.68278181
Br      -8.94795352      12.48557563       6.10559490
C        0.88173922      -0.88173922       0.88173922
C        2.08103430      -0.37994707       1.38405657
C        2.88805308      -1.18488605       2.19556127
C        2.49408044      -2.48970911       2.51866165
C        1.28915546      -2.98238537       1.98995168
C        0.48340669      -2.18267050       1.17559283
C        3.30239863      -3.34591094       3.39061454
N        3.40579461      -4.65548765       3.12681882
N        4.10048969      -5.16727471       4.16149174
C        4.20694753      -6.61142358       4.26540519
N        3.06801788      -7.18230994       4.96433283
N        3.25891663      -7.91536675       6.08727436
C        2.01999932      -8.28230838       6.43579760
C        1.04902243      -7.81476213       5.53427311
Cl      -0.61926836      -8.06570773       5.62459232
C        1.75352788      -7.12697256       4.58073067
C        4.56882049      -4.21026717       5.03140299
C        5.39096603      -4.49247798       6.20582394
C        6.70356177      -4.96078275       6.05952349
C        7.49249433      -5.21951010       7.18409474
C        6.97452583      -4.99461698       8.45802559
C        5.67431226      -4.52098814       8.61826215
C        4.88303876      -4.27644892       7.49290004
C        4.02043288      -3.01206308       4.58355562
C        4.14109101      -1.67308509       5.22165722
H        2.39917384       0.63205574       1.14802297
H        3.82995318      -0.78261557       2.55718700
H        0.97026147      -3.99814898       2.21700440
H       -0.44603875      -2.58501733       0.78167099
H        5.12656737      -6.88336714       4.78778447
H        4.23291888      -7.03827858       3.25716256
H        1.87862657      -8.87720970       7.32872901
H        1.44103234      -6.59513688       3.69212510
H        7.12700132      -5.12035467       5.07030639
H        8.50684815      -5.58825667       7.05576175
H        5.26677903      -4.34033960       9.60938513
H        3.86658902      -3.91314319       7.62863772
H        3.19912104      -1.11975589       5.15159144
H        4.92788424      -1.09022038       4.73299404
H        4.38948415      -1.74428227       6.28399383
C        7.79127607      -5.24745245       9.61672886
C        8.47530440      -5.45920215      10.58714285
Br       9.58132034      -5.80158352      12.15622019
