194
Properties=species:S:1:pos:R:3 pbc="F F F"
C        1.79164324       1.79164324      -1.79164324
C        3.03009503       1.32070943      -2.22394556
C        3.83738508       2.12547173      -3.03535567
C        3.40518873       3.39863319      -3.42834136
C        2.16037817       3.86129092      -2.96953549
C        1.35402672       3.06191172      -2.15544365
C        4.21424671       4.25219850      -4.30219097
N        4.25382972       5.57449267      -4.08949077
N        4.97009900       6.07293243      -5.11593678
C        5.02272181       7.51493123      -5.27583534
N        3.89202936       8.00912097      -6.04322241
N        4.10015717       8.70382931      -7.18728334
C        2.86317285       9.00430737      -7.60033716
C        1.87488210       8.53312393      -6.71976372
Cl       0.20310069       8.71020328      -6.88743979
C        2.56592189       7.91427431      -5.71074699
C        5.51248441       5.10219520      -5.92552312
C        6.37105882       5.37116591      -7.07675530
C        7.65651251       5.89948898      -6.89757859
C        8.48078693       6.14562807      -7.99939624
C        8.02603594       5.84826959      -9.28257494
C        6.75374063       5.31458983      -9.47494416
C        5.92652623       5.08254880      -8.37302475
C        4.99440426       3.90104699      -5.45031240
C        5.19534331       2.54374339      -6.02645869
H        3.37846843       0.33320462      -1.93318010
H        4.80899017       1.74877124      -3.34170641
H        1.81072470       4.85287934      -3.25152288
H        0.39350069       3.44050682      -1.81635412
H        5.95173160       7.80392051      -5.77177895
H        4.98931095       7.98265061      -4.28611053
H        2.73551198       9.55642605      -8.52233933
H        2.23812664       7.40594747      -4.81393229
H        8.03143229       6.11624474      -5.89969742
H        9.47325154       6.56135782      -7.84596928
H        6.39562668       5.07738206     -10.47320709
H        4.93206059       4.67186559      -8.53415582
H        4.27425171       1.95473968      -5.97118906
H        5.98377266       2.01441367      -5.48262439
H        5.48491614       2.58254676      -7.08000942
C        8.87974624       6.08831993     -10.41710328
C        9.59472861       6.28936209     -11.36727077
Br      10.75079464       6.61443026     -12.90361123
C       -1.79164324      -1.79164324      -1.79164324
C       -1.45340715      -3.12865665      -1.99268622
C       -2.26240056      -3.93908936      -2.79672256
C       -3.41907606      -3.42037274      -3.39271447
C       -3.73457061      -2.06625629      -3.19037768
C       -2.92627338      -1.25328096      -2.39182775
C       -4.30245633      -4.25157586      -4.21460398
N       -4.87407392      -3.73359166      -5.31014757
N       -5.70304865      -4.69536675      -5.76055282
C       -6.62098772      -4.35874267      -6.83375798
N       -7.84869206      -3.77287032      -6.32281035
N       -9.04222462      -4.35150127      -6.59754393
C       -9.92591663      -3.54770081      -5.99419994
C       -9.31117599      -2.45278252      -5.36381124
Cl     -10.07962499      -1.22024265      -4.50087613
C       -7.97193586      -2.60875017      -5.61025715
C       -5.59474074      -5.87832404      -5.06713794
C       -6.34297278      -7.09287120      -5.38313604
C       -6.08881197      -7.79713270      -6.56763541
C       -6.79773370      -8.96514029      -6.86293726
C       -7.75183354      -9.43991360      -5.96513333
C       -8.00873316      -8.75482341      -4.77971805
C       -7.30863945      -7.57996154      -4.49349879
C       -4.72386074      -5.60555157      -4.01635134
C       -4.33068835      -6.52260187      -2.91225518
H       -0.56266565      -3.54890127      -1.53328622
H       -1.96804350      -4.97185528      -2.95956904
H       -4.62136288      -1.63876518      -3.65499887
H       -3.19324584      -0.20984689      -2.24726890
H       -6.85998350      -5.25061964      -7.41682792
H       -6.14392142      -3.62358949      -7.49056118
H      -10.97904051      -3.79216301      -6.04307383
H       -7.11008896      -2.01837687      -5.32954056
H       -5.33178157      -7.44876999      -7.26682290
H       -6.59445654      -9.49783570      -7.78828641
H       -8.74907488      -9.12278720      -4.07435376
H       -7.52126317      -7.04845892      -3.56835990
H       -4.25458911      -5.98247155      -1.96311979
H       -3.36375748      -6.98600170      -3.13105154
H       -5.05907076      -7.32436154      -2.76404001
C       -8.47263689     -10.65070459      -6.26182798
C       -9.07630969     -11.66474204      -6.51030974
Br     -10.05239755     -13.30435484      -6.91208374
C       -1.79164324       1.79164324       1.79164324
C       -1.41315778       3.10693822       2.05465402
C       -2.22191375       3.91754780       2.85875093
C       -3.41804270       3.42132194       3.39279864
C       -3.77438590       2.08814261       3.12867607
C       -2.96662222       1.27482198       2.32993789
C       -4.30100386       4.25481379       4.21281852
N       -4.93153532       3.71940277       5.26687507
N       -5.74155136       4.69465465       5.72276220
C       -6.71055780       4.35412562       6.74880496
N       -7.93861446       3.83342426       6.17233400
N       -9.11994227       4.44603077       6.42529677
C      -10.00885513       3.69815420       5.76080805
C       -9.41085054       2.60444954       5.11246967
Cl     -10.19042702       1.43346450       4.17685225
C       -8.07701795       2.70119461       5.41273063
C       -5.56476517       5.89697314       5.07846442
C       -6.27999907       7.12648208       5.41249887
C       -6.04510703       7.77755041       6.63092265
C       -6.72198805       8.95985807       6.94396513
C       -7.62407067       9.50208400       6.03072579
C       -7.86097197       8.87029661       4.81200604
C       -7.19349421       7.68114669       4.50745889
C       -4.66557627       5.62988195       4.05030543
C       -4.19853298       6.57080647       2.99620594
H       -0.49126756       3.50985054       1.64373505
H       -1.89679375       4.93202667       3.07064740
H       -4.69278904       1.67765745       3.54468044
H       -3.26546390       0.24800481       2.13689292
H       -6.93887898       5.23270801       7.35584407
H       -6.28523709       3.57841871       7.39441629
H      -11.05356582       3.97993642       5.78077511
H       -7.22712708       2.08949090       5.14138841
H       -5.32783407       7.37610436       7.34343602
H       -6.53440106       9.45084504       7.89533254
H       -8.56064056       9.29091547       4.09465980
H       -7.39037997       7.19169311       3.55600892
H       -4.10649925       6.06279693       2.03088426
H       -3.22438139       6.98949934       3.26692999
H       -4.89146143       7.40408888       2.85192201
C       -8.31132602      10.72751166       6.34633176
C       -8.88690238      11.75380733       6.61065176
Br      -9.81756068      13.41324062       7.03803484
C        1.79164324      -1.79164324       1.79164324
C        2.97679902      -1.28045595       2.31749505
C        3.78372708      -2.08545790       3.12902749
C        3.40358534      -3.39995684       3.42862109
C        2.21303667      -3.90173931       2.87642861
C        1.40749050      -3.10190318       2.06198841
C        4.21169604      -4.25703707       4.29990306
N        4.33696732      -5.56126062       4.01958521
N        5.02443431      -6.07782488       5.05670903
C        5.14958557      -7.52168153       5.14222127
N        4.00922268      -8.11787461       5.81727544
N        4.19486210      -8.86382772       6.93257999
C        2.95650635      -9.25260314       7.25870789
C        1.99159601      -8.78592902       6.35024472
Cl       0.32588317      -9.06103578       6.41382481
C        2.69949004      -8.07527982       5.41617332
C        5.46735990      -5.12669221       5.94615061
C        6.27712830      -5.41392026       7.12793146
C        7.59801671      -5.86203805       6.99352533
C        8.37493670      -6.12554872       8.12532583
C        7.83640615      -5.92559316       9.39488115
C        6.52763156      -5.47217638       9.54346668
C        5.74857986      -5.22287229       8.41064764
C        4.90852544      -3.93001519       5.50722302
C        5.00170612      -2.59853474       6.16530453
H        3.28400881      -0.26097868       2.09986566
H        4.71486082      -1.67535159       3.50925541
H        1.90524857      -4.92486177       3.08501659
H        0.48925437      -3.51146402       1.64964324
H        6.06563604      -7.78820859       5.67358643
H        5.19537551      -7.93403415       4.12866244
H        2.81117510      -9.86178987       8.14131239
H        2.39186025      -7.53545052       4.53069563
H        8.03720873      -6.00195655       6.00820918
H        9.39600460      -6.47848073       8.00609332
H        6.10402261      -5.31099308      10.53120014
H        4.72539047      -4.87551219       8.53717934
H        4.05316282      -2.05729247       6.08972516
H        5.78694063      -1.99814252       5.69572757
H        5.23643083      -2.68111899       7.22992250
C        8.64058676      -6.18330649      10.56127619
C        9.31408803      -6.39914141      11.53813203
Br      10.40308261      -6.74812821      13.11762531
C       -0.00445707       0.01189536      -1.78238275
H       -0.66409135       0.67374010      -2.43557963
H        0.65740317      -0.63156657      -2.45157240
C       -0.90989263      -0.90692880      -0.91072765
C        0.90977584       0.90977584      -0.90977584
C       -0.00465871       1.77757030       0.00794375
H       -0.66225468       2.44313916      -0.64384735
H        0.64322798       2.43503045       0.67728295
C       -1.78241447       0.00034974      -0.00472694
H       -2.45427497      -0.65498947       0.64260836
H       -2.43311707       0.67328779      -0.65473579
C       -0.91132561       0.90220522       0.91563759
C       -0.01476271      -0.02253852       1.78660255
H       -0.67934791      -0.69751639       2.42135241
H        0.63392994       0.61504881       2.47327442
C        0.01484550      -1.77751727      -0.01636693
H        0.67870853      -2.42144646      -0.68295456
H       -0.62264859      -2.45592969       0.64226336
C        1.78714474       0.01002794       0.00389507
H        2.44202412       0.67113390       0.66197326
H        2.45385902      -0.65136977      -0.64189061
C        0.91606151      -0.90478549       0.90901405
