185
Properties=species:S:1:pos:R:3 pbc="F F F"
C        0.00000000       0.00000000       0.00000000
C        0.88104344       0.88104344      -0.88104344
C        2.08886483       0.38822454      -1.36379874
C        2.89495309       1.19542784      -2.17519525
C        2.50923935       2.50476500      -2.52346357
C        1.28684936       2.97575214      -2.00655940
C        0.47627011       2.17363891      -1.19560604
C        3.34400491       3.36505653      -3.38824530
C        4.15387730       2.86580709      -4.39023787
C        4.92133969       3.75651282      -5.14640957
C        5.76898597       3.17444107      -6.22582487
O        5.84252413       3.70720967      -7.32575962
N        6.43454817       2.01259009      -5.89923665
C        7.32149832       1.35935674      -6.83540178
C        7.27214271      -0.13518203      -6.65808313
C        6.30832113      -0.89230255      -7.34038406
C        6.25222142      -2.27791338      -7.18208474
C        7.15077660      -2.91924109      -6.33199578
C        8.10201096      -2.17546353      -5.63539139
C        8.16108026      -0.78912218      -5.79371290
C        4.84624472       5.15225901      -4.91496844
C        5.57955063       6.13443022      -5.63019764
C        5.43475799       7.48812974      -5.34582966
Br       6.41260806       8.77217741      -6.32802050
C        4.57128399       7.89691508      -4.34258283
C        3.84878072       6.94106794      -3.61156411
C        2.91538167       7.40631724      -2.52287283
C        3.97629369       5.57129654      -3.88542200
N        3.26289786       4.69474093      -3.15258410
H        2.41689982      -0.61766942      -1.11437725
H        3.84257905       0.78496680      -2.51761932
H        0.95384067       3.98621096      -2.24216764
H       -0.46280382       2.57066078      -0.81925776
H        4.16100683       1.80444260      -4.61455641
H        6.45953091       1.69249919      -4.94065079
H        8.33360253       1.73607073      -6.64885179
H        7.06524207       1.62910844      -7.86621476
H        5.60024564      -0.40289060      -8.00680686
H        5.50998700      -2.85694280      -7.72591182
H        7.11086683      -3.99922670      -6.21417683
H        8.80214579      -2.67783090      -4.97245086
H        8.91256559      -0.22502273      -5.24614803
H        6.26418744       5.84316231      -6.42410953
H        4.45454659       8.95559353      -4.12208451
H        2.94667583       8.49470225      -2.40401949
H        3.19889924       6.96313637      -1.56260924
H        1.88403089       7.12845017      -2.76383032
C       -0.88104344      -0.88104344      -0.88104344
C       -2.08515135      -1.37024001      -0.38549675
C       -2.89492821      -2.17523840      -1.19540957
C       -2.52153385      -2.50213798      -2.51379609
C       -1.29026890      -2.00062799      -2.97826401
C       -0.47666973      -1.19491288      -2.17393246
C       -3.37094865      -3.34150968      -3.38484841
C       -4.75021155      -3.35585831      -3.30385240
C       -5.46925382      -4.19601778      -4.15899048
C       -6.95548535      -4.16776648      -4.04600007
O       -7.66355428      -4.16706740      -5.04487174
N       -7.45456886      -4.12994611      -2.76185994
C       -8.87654557      -4.13807375      -2.50163752
C       -9.19639156      -3.32035152      -1.27830073
C       -9.42135378      -1.94063161      -1.39441726
C       -9.71674347      -1.17265164      -0.26699767
C       -9.77894431      -1.77327229       0.98868531
C       -9.54032996      -3.14053592       1.11892706
C       -9.24638501      -3.91118301      -0.00810296
C       -4.79981797      -4.99549858      -5.11815562
C       -5.43895118      -5.87407629      -6.03115101
C       -4.70367785      -6.61393450      -6.95110503
Br      -5.58593505      -7.76193723      -8.16493368
C       -3.32264711      -6.50842264      -6.97971215
C       -2.66902034      -5.65793326      -6.07445917
C       -1.16540300      -5.55832175      -6.12084698
C       -3.39178727      -4.89928546      -5.14193952
N       -2.71626396      -4.10075525      -4.29320368
H       -2.40360934      -1.13743043       0.62743213
H       -3.81961807      -2.55744658      -0.76810051
H       -0.95701399      -2.23666331      -3.98854197
H        0.46476277      -0.82265570      -2.56922181
H       -5.26812812      -2.69418434      -2.61769337
H       -6.84081374      -4.27929155      -1.97257560
H       -9.17963339      -5.18135762      -2.35753403
H       -9.43207376      -3.76079515      -3.36769635
H       -9.37485563      -1.45950656      -2.36979970
H       -9.90271246      -0.10645107      -0.36979249
H      -10.01556165      -1.17579955       1.86554423
H       -9.58921986      -3.60722098       2.09967510
H       -9.06757061      -4.97728200       0.11116171
H       -6.52215876      -5.97664192      -6.03265860
H       -2.74710144      -7.08375635      -7.70136684
H       -0.74072809      -6.23037567      -6.87429380
H       -0.73497755      -5.83643758      -5.15322971
H       -0.86110196      -4.53816539      -6.37704403
C       -0.88104344       0.88104344       0.88104344
C       -0.30257745       1.66274266       1.87556800
C       -1.11077667       2.47378588       2.68101363
C       -2.50767652       2.52372512       2.50606628
C       -3.06073970       1.70969019       1.49873101
C       -2.25827822       0.89737828       0.68985856
C       -3.37297405       3.38339717       3.34093551
C       -2.95368448       4.59109600       3.86514178
C       -3.83818410       5.32768094       4.65839703
C       -3.34770647       6.63103782       5.19050763
O       -4.06511458       7.62321779       5.18716105
N       -2.05239905       6.63261070       5.66136516
C       -1.45885678       7.81654347       6.24085659
C        0.01353490       7.87737685       5.93120186
C        0.45729161       8.47264239       4.74105187
C        1.81950986       8.53292838       4.44297427
C        2.75075196       7.98906493       5.32521832
C        2.32064735       7.37967415       6.50291201
C        0.95819883       7.31986879       6.80400102
C       -5.15566399       4.86318561       4.89462256
C       -6.12622151       5.53870960       5.67924738
C       -7.40401600       5.01626472       5.84843667
Br      -8.67894335       5.94873822       6.88512440
C       -7.74422006       3.81157648       5.25498535
C       -6.79431064       3.11861529       4.48848683
C       -7.18384790       1.80852416       3.85219968
C       -5.50172131       3.63013424       4.30115668
N       -4.62669477       2.92434603       3.55918209
H        0.77219439       1.64808773       2.03771430
H       -0.62682878       3.05579083       3.46254556
H       -4.13804714       1.70927514       1.33489699
H       -2.72124303       0.28639197      -0.08052028
H       -1.96932394       4.98134525       3.62933665
H       -1.55228165       5.76190291       5.77849633
H       -1.62316823       7.77187573       7.32348109
H       -1.96176298       8.72030690       5.87849538
H       -0.26042400       8.90045208       4.04328581
H        2.15377428       9.00847970       3.52425061
H        3.81204060       8.04217873       5.09567883
H        3.04893399       6.95578693       7.18991280
H        0.64060315       6.84491746       7.72937658
H       -5.88796048       6.48707295       6.15642585
H       -8.74447130       3.40414466       5.38360867
H       -8.20863635       1.52340470       4.11335651
H       -6.52246088       1.00639497       4.19578900
H       -7.12886246       1.88608215       2.76136677
C        0.88104344      -0.88104344       0.88104344
C        0.54494436      -2.21605401       1.07988975
C        1.35558914      -3.02493527       1.88505176
C        2.51700786      -2.51917529       2.50128476
C        2.81985600      -1.16032865       2.28897625
C        2.01404117      -0.34674530       1.48472859
C        3.38897871      -3.36341944       3.34490859
C        3.56058571      -4.71773912       3.13159743
C        4.39311954      -5.43799091       3.99315163
C        4.55980138      -6.89330351       3.71614702
O        5.65938628      -7.42685304       3.78925410
N        3.41012050      -7.56874259       3.36751182
C        3.41648095      -8.99099960       3.10877629
C        2.41314155      -9.34028690       2.04161536
C        2.77955218      -9.28829003       0.68856043
C        1.85720805      -9.60816389      -0.30897916
C        0.55686572      -9.97188226       0.03478332
C        0.17615943     -10.01051873       1.37526065
C        1.09797900      -9.69259586       2.37509612
C        5.07877703      -4.78660892       5.04808621
C        5.94694510      -5.42739324       5.96984015
C        6.59166130      -4.70721067       6.96984542
Br       7.75493659      -5.58704544       8.17082393
C        6.38290267      -3.34255621       7.08532301
C        5.51527350      -2.69164804       6.19449122
C        5.30043231      -1.20630763       6.33783180
C        4.85896105      -3.39818324       5.17586794
N        4.03419809      -2.72682080       4.34920400
H       -0.34443117      -2.63865192       0.61938690
H        1.05107876      -4.05854766       2.03553875
H        3.70345234      -0.72436212       2.75440481
H        2.28286434       0.69637091       1.34062130
H        3.09105067      -5.20517995       2.28377522
H        2.50840857      -7.12169888       3.46257343
H        3.17136444      -9.49844453       4.04871608
H        4.41718405      -9.32796192       2.81541929
H        3.79220279      -9.00485958       0.40709952
H        2.15526187      -9.57774435      -1.35405020
H       -0.15920942     -10.22731148      -0.74228510
H       -0.83903933     -10.29445474       1.64135033
H        0.78525871      -9.73248018       3.41595200
H        6.13088409      -6.49769394       5.90288124
H        6.88965147      -2.77788901       7.86468415
H        5.85077003      -0.80093850       7.19368904
H        4.23929006      -0.98830598       6.49704881
H        5.65060412      -0.68465466       5.44105259
