193
Properties=species:S:1:pos:R:3 pbc="F F F"
C        0.00000000       0.00000000       0.00000000
C       -2.75264478      -3.83199783      -8.11230118
C       -1.86911818      -2.91113357      -7.32577542
C       -2.27826741      -1.60543295      -7.04038511
C       -1.43071615      -0.73465884      -6.34989302
C       -0.15278156      -1.14499278      -5.95360983
C        0.25755894      -2.44598982      -6.23806065
C       -0.59417345      -3.32224276      -6.92191665
N        0.64618680      -0.19723695      -5.28617176
C        1.97347918      -0.32138722      -4.92937128
O        2.74169986      -1.24677450      -5.14401202
C        2.49968656       0.88654614      -4.26025831
C        3.36374392       1.68401368      -5.00973814
C        3.78025610       2.88598573      -4.47409719
N        3.34008312       3.27935284      -3.24873049
C        2.53564760       2.49612845      -2.50032145
C        2.12309597       2.92459674      -1.22775793
C        2.50621189       4.29315560      -0.72252551
C        1.29077626       2.12505656      -0.42816645
C        0.88067958       0.88067958      -0.88067958
C        1.26879825       0.43867124      -2.13856691
C        2.08640996       1.24984781      -2.96425618
C        4.69632893       3.83754389      -5.16087620
C        5.08918511       5.03780996      -4.52999346
C        5.95112219       5.95513546      -5.14311889
C        6.44452342       5.69061301      -6.41360987
C        6.08339556       4.52042752      -7.07032848
C        5.21999256       3.60638693      -6.44924111
H       -3.80973984      -3.59898091      -7.94484036
H       -2.59703805      -4.87330842      -7.81216186
H       -2.53528029      -3.73384387      -9.18040045
H       -3.25828385      -1.25469090      -7.35882625
H       -1.78189713       0.27427176      -6.14634852
H        1.23398940      -2.81340010      -5.93972118
H       -0.24745054      -4.32953352      -7.14018516
H        0.20513098       0.69542524      -5.10117173
H        3.67086945       1.34533041      -5.99150523
H        3.50172990       4.59179778      -1.06665747
H        2.53434661       4.30960958       0.37288389
H        1.77373266       5.03194745      -1.06377052
H        0.97466001       2.48127918       0.55010888
H        0.94593455      -0.54555966      -2.47525440
H        4.72105668       5.27273588      -3.53162296
H        6.22585900       6.86465108      -4.61587448
H        6.46584758       4.30298605      -8.06429689
H        4.97415116       2.70715125      -7.00735266
C        7.33183856       6.62866059      -7.05105679
C        8.07496499       7.41427544      -7.58491858
Br       9.27653758       8.68454820      -8.44812795
C       -6.90118528       6.29279568      -0.91926896
C       -6.33730430       4.91955208      -1.12777145
C       -5.54801052       4.63770441      -2.24637864
C       -5.06573213       3.34387267      -2.46265857
C       -5.38234704       2.30570932      -1.57919778
C       -6.17000223       2.58427387      -0.46390141
C       -6.64635563       3.88213958      -0.24128438
N       -4.87748662       1.02762114      -1.88525614
C       -5.16775982      -0.16298097      -1.25072245
O       -5.94030520      -0.37116855      -0.32746363
C       -4.47213373      -1.31704382      -1.85731346
C       -5.25651154      -2.18541859      -2.61556560
C       -4.63096032      -3.20470705      -3.30467165
N       -3.27872213      -3.34029115      -3.24915318
C       -2.51646937      -2.52893851      -2.48668962
C       -1.12536095      -2.71654212      -2.43354757
C       -0.46455850      -3.76900703      -3.28832747
C       -0.31189686      -1.88881497      -1.64328744
C       -0.88067958      -0.88067958      -0.88067958
C       -2.25265812      -0.67048671      -0.92289157
C       -3.07904536      -1.48308145      -1.73838713
C       -5.33969298      -4.20087158      -4.15418446
C       -4.62266895      -5.22611204      -4.80820754
C       -5.25482603      -6.18210688      -5.61244362
C       -6.63186281      -6.13406879      -5.78281469
C       -7.37601322      -5.14153105      -5.15660729
C       -6.73545330      -4.18792528      -4.35224202
H       -6.24338557       7.05607059      -1.34880464
H       -7.00434225       6.51467136       0.14785550
H       -7.88429879       6.36731947      -1.39429696
H       -5.30748221       5.42270076      -2.96107005
H       -4.45561273       3.16103860      -3.34414903
H       -6.43103632       1.81512469       0.25560115
H       -7.26678968       4.07229295       0.63129564
H       -4.27825946       0.97660361      -2.70007210
H       -6.32731777      -2.02764891      -2.65273841
H       -1.09741419      -4.65429061      -3.40848034
H        0.47062178      -4.11102151      -2.83067258
H       -0.23834742      -3.35481698      -4.27628624
H        0.76468930      -2.04528539      -1.62523422
H       -2.68490724       0.11957791      -0.31029995
H       -3.54119081      -5.29217625      -4.69204847
H       -4.65945674      -6.95320341      -6.09372441
H       -8.45480756      -5.09644258      -5.28188038
H       -7.36669684      -3.43728233      -3.88467589
C       -7.28981016      -7.11377005      -6.60797573
C       -7.84084107      -7.93426985      -7.29904809
Br      -8.73181144      -9.26094863      -8.41645366
C        1.98132780      -4.49004598       7.99903234
C        1.20852269      -3.46752207       7.22156843
C        1.71417454      -2.17618127       7.04704056
C        0.96791228      -1.21173881       6.36416912
C       -0.30422499      -1.51330107       5.86491157
C       -0.81071563      -2.79982236       6.03873649
C       -0.06019194      -3.76958882       6.71489733
N       -0.99890158      -0.47674298       5.21296302
C       -2.30531825      -0.49246079       4.76860578
O       -3.14083606      -1.37737036       4.87547169
C       -2.71234846       0.78563108       4.14851148
C       -3.57302507       1.59034802       4.89412265
C       -3.87982649       2.84724260       4.41326993
N       -3.33785329       3.28516315       3.24515002
C       -2.53576281       2.49843903       2.49789566
C       -2.01609665       2.97599202       1.28336198
C       -2.28145382       4.39478900       0.84565017
C       -1.18390388       2.17432641       0.48576898
C       -0.88067958       0.88067958       0.88067958
C       -1.37588230       0.38894847       2.08120563
C       -2.19441083       1.19965820       2.90644493
C       -4.77884683       3.81263771       5.10326447
C       -5.05600571       5.07210302       4.52887981
C       -5.89840960       6.00437619       5.14659075
C       -6.48847516       5.69549380       6.36477733
C       -6.24276243       4.46647484       6.96491429
C       -5.39818118       3.53786371       6.33957571
H        3.05930068      -4.31638935       7.91180965
H        1.78234981      -5.49881691       7.62298211
H        1.70145340      -4.44327987       9.05600955
H        2.69099959      -1.90988333       7.44673442
H        1.39242019      -0.21721379       6.24835712
H       -1.78629038      -3.08418056       5.65820066
H       -0.48111563      -4.76366761       6.84575307
H       -0.49316805       0.39500918       5.11355073
H       -3.96332780       1.21310458       5.83127270
H       -3.27715612       4.73590992       1.14711910
H       -2.23734294       4.47978177      -0.24605240
H       -1.52900707       5.06227827       1.27816530
H       -0.78380369       2.56824282      -0.44621620
H       -1.13616436      -0.63286084       2.37232577
H       -4.61018954       5.34305239       3.57217360
H       -6.08237277       6.96025856       4.66375322
H       -6.70149354       4.21413890       7.91749808
H       -5.24437627       2.59221505       6.85206375
C       -7.35647233       6.64857197       7.00651163
C       -8.08341996       7.44677494       7.54396411
Br      -9.25883280       8.73740162       8.41297931
C        0.78260594      -6.97482391      -6.22977130
C        1.01118448      -6.39902961      -4.86469042
C        2.14073408      -5.61855845      -4.60260778
C        2.37542237      -5.12525681      -3.31616116
C        1.49959907      -5.42195153      -2.26571510
C        0.37341098      -6.20078492      -2.52456613
C        0.13240532      -6.68813780      -3.81504268
N        1.82412490      -4.90716673      -0.99617001
C        1.19905969      -5.17854301       0.20386054
O        0.27010962      -5.93925341       0.42957435
C        1.82476005      -4.47741789       1.34431307
C        2.58388911      -5.26065870       2.21294792
C        3.28997140      -4.63184773       3.21851989
N        3.24979707      -3.27778029       3.34058909
C        2.48682257      -2.51603104       2.52924388
C        2.44996610      -1.12258651       2.70289804
C        3.32241279      -0.45991048       3.73956972
C        1.65955505      -0.30951080       1.87493342
C        0.88067958      -0.88067958       0.88067958
C        0.90656911      -2.25511520       0.68435209
C        1.72192231      -3.08153115       1.49706049
C        4.14246030      -5.33908505       4.21320367
C        4.81446743      -4.61838468       5.22413642
C        5.62205511      -5.24899718       6.17832424
C        5.77772537      -6.62815409       6.14286683
C        5.13359187      -7.37593059       5.16462909
C        4.32598643      -6.73689019       4.21274398
H        1.21092744      -6.32942598      -7.00423380
H       -0.28777555      -7.06914989      -6.43955895
H        1.24668202      -7.96354301      -6.29894875
H        2.84965705      -5.39357840      -5.39738395
H        3.26500487      -4.52249304      -3.14877476
H       -0.34069873      -6.44638170      -1.74537248
H       -0.74845010      -7.30138323      -3.98973204
H        2.64555612      -4.31595780      -0.95978596
H        2.60838745      -6.33336192       2.06595572
H        3.44524754      -1.08483083       4.63010677
H        2.87799795       0.48345471       4.07652907
H        4.30828520      -0.24827083       3.31289461
H        1.65422026       0.76875938       2.02036943
H        0.28136939      -2.68908018      -0.09482028
H        4.71014688      -3.53513322       5.28013542
H        6.11744072      -4.65075838       6.93818546
H        5.24727140      -8.45637734       5.12948178
H        3.84415737      -7.37093147       3.47356623
C        6.60621684      -7.28452770       7.12081139
C        7.30007844      -7.83424060       7.93983997
Br       8.42199397      -8.72307986       9.26413990
