194
Properties=species:S:1:pos:R:3 pbc="F F F"
C       -0.85030847       7.13786861      -0.17585801
C       -1.11291875       5.75443625      -0.72127608
O       -1.22689287       5.90085391      -2.14204690
C       -2.47895564       5.98782587      -2.65063505
O       -3.51520772       5.67753741      -2.08068621
C       -2.43751351       6.73692621      -3.96679650
C       -1.71306201       6.01429776      -5.08655283
N       -0.28438821       5.84095231      -4.87811873
N        0.09337838       4.62466905      -4.44999608
C        1.36661146       4.76661704      -4.05911666
C        2.01183225       3.66373244      -3.33319064
C        3.38370979       3.39598273      -3.41986131
C        3.95464528       2.34994297      -2.68591934
C        3.15857779       1.54711862      -1.86972738
C        1.79173408       1.79173408      -1.79173408
C        1.22025283       2.83838196      -2.51328555
C        1.83707144       6.06324760      -4.41888136
Cl       3.41389963       6.66354860      -4.16042354
C        0.75763251       6.74410097      -4.98436031
C        0.66961650       8.12056903      -5.51369199
C        1.34455326       9.18005403      -4.88342198
C        1.31955954      10.47925623      -5.40520586
C        0.57477606      10.75650411      -6.54673163
C       -0.10940060       9.72269338      -7.17483540
Br      -1.15252589      10.09163695      -8.70991764
C       -0.04122967       8.41304602      -6.68591008
H       -0.64649058       7.12438792       0.89470295
H       -1.70056216       7.80042633      -0.37359626
H        0.01308981       7.59275163      -0.69500692
H       -2.00150520       5.30643867      -0.26180458
H       -0.26069422       5.09568189      -0.51880926
H       -2.00742330       7.72751905      -3.77161874
H       -3.47888029       6.89913405      -4.26860781
H       -1.86094168       6.54465891      -6.02446494
H       -2.14617919       5.01616315      -5.22910133
H        4.03204151       3.97856705      -4.06713511
H        5.02240209       2.15766824      -2.75744971
H        3.61012773       0.73371586      -1.30719829
H        0.14924805       3.01835700      -2.44065523
H        1.92132782       9.01343635      -3.97525505
H        1.88032289      11.27382317      -4.91367521
H        0.54278658      11.76909255      -6.93829389
H       -0.52815273       7.62383939      -7.24917884
C        1.05170736      -7.10109941      -0.41402610
C        1.25756866      -5.69516402      -0.92519821
O        1.33317873      -5.79676067      -2.35242601
C        2.57145845      -5.83140879      -2.89955495
O        3.61484952      -5.50693934      -2.35092609
C        2.51243006      -6.54285429      -4.23578497
C        1.73410117      -5.80999908      -5.31189067
N        0.30787175      -5.68561662      -5.05693796
N       -0.09209468      -4.49413706      -4.58181176
C       -1.34839730      -4.68542301      -4.15852484
C       -2.00337787      -3.62390063      -3.38147684
C       -3.38443508      -3.39492161      -3.42019714
C       -3.96330338      -2.38820439      -2.63899983
C       -3.16682996      -1.58597067      -1.82262317
C       -1.79173408      -1.79173408      -1.79173408
C       -1.21193201      -2.79940259      -2.56058574
C       -1.79153886      -5.98455095      -4.54311058
Cl      -3.34181718      -6.63902893      -4.25702566
C       -0.71017917      -6.61607665      -5.15983797
C       -0.59808559      -7.97333214      -5.73245979
C       -1.22278795      -9.07040726      -5.11483406
C       -1.17568102     -10.35256950      -5.67577111
C       -0.45765217     -10.57411824      -6.84624138
C        0.17709287      -9.50248147      -7.46273958
Br       1.18409031      -9.79528227      -9.03783674
C        0.08555945      -8.21022056      -6.93306532
H        0.87971370      -7.12483690       0.66192880
H        1.91455500      -7.73188946      -0.65612597
H        0.18674135      -7.56634067      -0.92124903
H        2.14611502      -5.23431439      -0.47853869
H        0.39300391      -5.06837040      -0.67843044
H        2.11733843      -7.55112744      -4.05792549
H        3.54857144      -6.66498651      -4.57244650
H        1.86919382      -6.30822058      -6.26915541
H        2.13357302      -4.79562937      -5.43702894
H       -4.03464553      -3.97759389      -4.06550424
H       -5.03785842      -2.22597320      -2.67368843
H       -3.62478684      -0.80313446      -1.22312057
H       -0.13445631      -2.94927955      -2.52452442
H       -1.77672326      -8.94758385      -4.18571211
H       -1.69815896     -11.17750898      -5.19215331
H       -0.40798644     -11.57349061      -7.26869596
H        0.53227023      -7.39076207      -7.48637366
C       -1.42349863      -1.77982954       6.81974906
C       -1.77267667      -1.76060685       5.35072377
O       -3.20071128      -1.66610830       5.28140496
C       -3.88308857      -2.82132018       5.09773690
O       -3.41822428      -3.88271615       4.70750778
C       -5.28343490      -2.67394391       5.65671821
C       -6.16424536      -1.68867097       4.91221418
N       -5.73744695      -0.30122479       4.99846067
N       -5.07373179       0.16642463       3.92788708
C       -4.53995654       1.32974200       4.32264662
C       -3.56651406       1.99601834       3.44622292
C       -3.42100884       3.38778063       3.39076436
C       -2.45893134       3.97237374       2.55920252
C       -1.64211253       3.17402985       1.75928141
C       -1.79173408       1.79173408       1.79173408
C       -2.74186816       1.20455353       2.62549865
C       -5.03358208       1.66958214       5.61603617
Cl      -4.66065062       3.08810065       6.48912049
C       -5.84242400       0.61096232       6.03270748
C       -6.59093676       0.42080072       7.29214003
C       -6.05086948       0.83554825       8.52161155
C       -6.77109268       0.71637561       9.71655333
C       -8.03319395       0.13179211       9.71302574
C       -8.57649049      -0.29584630       8.50748399
Br     -10.27878586      -1.12208354       8.49232638
C       -7.88082712      -0.12780242       7.30470173
H       -0.34673412      -1.74896943       6.98542970
H       -1.83852178      -2.67034815       7.30528680
H       -1.88533550      -0.91530013       7.33081298
H       -1.37372996      -2.64121450       4.83422259
H       -1.35336547      -0.86943359       4.86986504
H       -5.19131491      -2.41997187       6.72037146
H       -5.74678049      -3.66632649       5.60840757
H       -7.18586757      -1.75664025       5.27895485
H       -6.20412176      -1.95294134       3.84790488
H       -4.05784942       4.04493788       3.97495636
H       -2.35222816       5.05404995       2.53124194
H       -0.90096445       3.63733302       1.11274440
H       -2.84598396       0.12120920       2.64106712
H       -5.05751208       1.27784219       8.57466495
H       -6.34016205       1.07779487      10.64986434
H       -8.58146582       0.02427513      10.64443206
H       -8.37265128      -0.40634815       6.37856236
C        3.45287036       2.69288678       5.70343457
C        3.40248067       2.28894708       4.24925999
O        4.71558888       1.81955085       3.91996991
C        5.54653085       2.69961263       3.31258706
O        5.22110063       3.74343592       2.76535120
C        6.98387038       2.31403612       3.59637494
C        7.42695369       1.00670369       2.96753857
N        6.76580436      -0.17805768       3.49082079
N        5.76962921      -0.66588306       2.73253123
C        5.13164240      -1.54913198       3.51157077
C        3.85239397      -2.10616707       3.05019429
C        3.41995649      -3.39569719       3.38390015
C        2.17942496      -3.86938260       2.94170003
C        1.36321221      -3.06662062       2.14559096
C        1.79173408      -1.79173408       1.79173408
C        3.02206187      -1.31209673       2.23776174
C        5.86130638      -1.73609649       4.72179752
Cl       5.44652303      -2.80536069       5.98598805
C        6.94621833      -0.85869553       4.68117993
C        8.01500865      -0.61683404       5.67203483
C        7.73601998      -0.62250521       7.04950409
C        8.74721909      -0.45350376       8.00329878
C       10.05728335      -0.22515066       7.59557779
C       10.34805890      -0.20329560       6.23677368
Br      12.11999536       0.13830310       5.66733645
C        9.34821076      -0.42637279       5.28314288
H        2.47124368       2.97316269       6.08511339
H        4.14925525       3.52622615       5.85043132
H        3.84611707       1.86030798       6.31503927
H        3.07053325       3.11950595       3.61571075
H        2.70310971       1.45703172       4.10771894
H        7.11824538       2.31207323       4.68554234
H        7.60962191       3.12362110       3.20286076
H        8.50042733       0.88301545       3.09077029
H        7.24510094       1.03166240       1.88564676
H        4.03920305      -4.06236081       3.97617980
H        1.85325093      -4.87018689       3.21408223
H        0.40342010      -3.44497275       1.80264902
H        3.34294964      -0.31155134       1.95375931
H        6.72139346      -0.77525712       7.41336863
H        8.50623020      -0.49646694       9.06512412
H       10.83602542      -0.07623296       8.33791464
H        9.63188856      -0.47591500       4.23706193
C       -0.00445707       0.01189536      -1.78238275
H       -0.66409135       0.67374010      -2.43557963
H        0.65740317      -0.63156657      -2.45157240
C       -0.90989263      -0.90692880      -0.91072765
C        0.90977584       0.90977584      -0.90977584
C       -0.00465871       1.77757030       0.00794375
H       -0.66225468       2.44313916      -0.64384735
H        0.64322798       2.43503045       0.67728295
C       -1.78241447       0.00034974      -0.00472694
H       -2.45427497      -0.65498947       0.64260836
H       -2.43311707       0.67328779      -0.65473579
C       -0.91132561       0.90220522       0.91563759
C       -0.01476271      -0.02253852       1.78660255
H       -0.67934791      -0.69751639       2.42135241
H        0.63392994       0.61504881       2.47327442
C        0.01484550      -1.77751727      -0.01636693
H        0.67870853      -2.42144646      -0.68295456
H       -0.62264859      -2.45592969       0.64226336
C        1.78714474       0.01002794       0.00389507
H        2.44202412       0.67113390       0.66197326
H        2.45385902      -0.65136977      -0.64189061
C        0.91606151      -0.90478549       0.90901405
