173
Properties=species:S:1:pos:R:3 pbc="F F F"
C        0.00000000       0.00000000       0.00000000
F        1.83313037      -5.37751818      -8.90258730
C        1.97143886      -4.26982143      -8.16326751
C        3.19970621      -3.62477391      -8.11925939
C        3.34413055      -2.47324789      -7.34064280
C        2.25911020      -1.96055792      -6.61335119
C        1.02867350      -2.62179195      -6.67682763
C        0.88677966      -3.78001619      -7.44886725
N        2.49035084      -0.79696863      -5.84961162
C        1.56134897      -0.07141624      -5.12232879
O        0.36501174      -0.30069558      -5.01657740
C        2.12525923       1.12047873      -4.42872071
C        2.89143161       2.00433367      -5.19539762
C        3.43196443       3.11813749      -4.58179793
N        3.24130708       3.34723856      -3.26175167
C        2.48030313       2.52411901      -2.51577107
C        2.28731079       2.82345949      -1.16002962
C        2.92685632       4.05056307      -0.56219061
C        1.47959258       2.01176838      -0.34802422
C        0.88103881       0.88103881      -0.88103881
C        1.08071071       0.55268289      -2.21721481
C        1.87520817       1.37224775      -3.05933073
C        4.25033391       4.12483396      -5.29239596
C        5.23440914       4.86277093      -4.60461861
C        6.01751912       5.82528121      -5.25119902
C        5.82629069       6.06999762      -6.60604632
Br       6.87528172       7.37215742      -7.48555340
C        4.85930878       5.36487031      -7.31529449
C        4.07782474       4.40393507      -6.66187408
H        4.03426509      -4.02112421      -8.68748016
H        4.31370609      -1.98202696      -7.31952108
H        0.16076981      -2.27118778      -6.12727616
H       -0.06606854      -4.29979456      -7.49161821
H        3.45038961      -0.47615631      -5.82621592
H        3.04625361       1.82202422      -6.25318425
H        4.00300078       4.06114843      -0.76603194
H        2.80508279       4.07659634       0.52603988
H        2.46842239       4.95462524      -0.97569251
H        1.32266755       2.27064858       0.69669605
H        0.59884943      -0.34037673      -2.61139923
H        5.39556165       4.69015908      -3.54069928
H        6.76395847       6.37583813      -4.68480741
H        4.69566608       5.56007905      -8.37209502
H        3.31142216       3.89524580      -7.24268416
F       -0.07827697      -9.62527482       4.34535230
C       -0.49205750      -8.77250954       3.39968210
C       -0.57620180      -9.19967665       2.08168676
C       -1.00069092      -8.30572318       1.09488864
C       -1.35020977      -6.98765652       1.42596284
C       -1.26477538      -6.57959564       2.76066185
C       -0.83070396      -7.47196046       3.74703371
N       -1.76439634      -6.14857577       0.36997828
C       -2.22927003      -4.84726410       0.46427261
O       -2.37624579      -4.18830664       1.48365887
C       -2.59720237      -4.23436407      -0.84289224
C       -3.45499300      -4.96331055      -1.67285935
C       -3.81326592      -4.42476953      -2.89386440
N       -3.33464093      -3.22331472      -3.29234166
C       -2.53358807      -2.49382715      -2.49277799
C       -2.09082961      -1.24094493      -2.93902536
C       -2.51396040      -0.73223030      -4.29341930
C       -1.27769776      -0.43116898      -2.13051844
C       -0.88103881      -0.88103881      -0.88103881
C       -1.28850755      -2.13163946      -0.43046140
C       -2.12834091      -2.95508506      -1.22336068
C       -4.71924329      -5.09928868      -3.84903185
C       -4.60367991      -4.86436689      -5.23375189
C       -5.45184000      -5.48415822      -6.15800113
C       -6.43922126      -6.35362793      -5.70948544
Br      -7.59261133      -7.19014117      -6.95024004
C       -6.58645584      -6.60401705      -4.34900069
C       -5.73528125      -5.97929675      -3.42905589
H       -0.31059629     -10.22096950       1.83094475
H       -1.06056587      -8.65923632       0.06860198
H       -1.51567800      -5.56929494       3.06811474
H       -0.75507075      -7.15345485       4.78277049
H       -1.69381441      -6.54961251      -0.55702229
H       -3.83886389      -5.92676977      -1.35582842
H       -2.28896458      -1.47191004      -5.06930654
H       -1.98168035       0.18694451      -4.56090340
H       -3.58694675      -0.51505939      -4.29673400
H       -0.96103364       0.54776719      -2.48335363
H       -0.96357574      -2.46119685       0.55490067
H       -3.83998766      -4.18131913      -5.60511322
H       -5.33276347      -5.27420523      -7.21763532
H       -7.36461476      -7.27296280      -3.99026259
H       -5.90107224      -6.17620886      -2.37207102
F       -5.68055410      -6.45456583       6.13221121
C       -5.32406911      -5.21889668       5.75971250
C       -6.29473280      -4.23466896       5.63412785
C       -5.92163814      -2.94758677       5.23747410
C       -4.57761437      -2.64105542       4.97534451
C       -3.61469572      -3.64538848       5.11440193
C       -3.98964513      -4.93635035       5.50233594
N       -4.28642740      -1.31950325       4.57606968
C       -3.03716113      -0.76843729       4.34353768
O       -1.95365444      -1.32455653       4.45179565
C       -3.06802512       0.66563115       3.94080240
C       -3.80714842       1.54027559       4.74373889
C       -3.85917197       2.87658113       4.39614674
N       -3.22312491       3.33432657       3.29284584
C       -2.48111411       2.51253403       2.52654508
C       -1.81566525       3.04262259       1.41251206
C       -1.93772011       4.51036926       1.09152063
C       -1.00754308       2.23222956       0.59961254
C       -0.88103881       0.88103881       0.88103881
C       -1.55332372       0.33076018       1.96652451
C       -2.35671400       1.13738000       2.81269265
C       -4.60076432       3.89363826       5.17316124
C       -5.12606522       5.03707790       4.53865556
C       -5.82559138       6.01728666       5.25112131
C       -6.01046445       5.87090902       6.62096115
Br      -6.94865397       7.19268495       7.59165361
C       -5.49997395       4.75805262       7.28144701
C       -4.79947422       3.78137991       6.56277975
H       -7.33169056      -4.47433183       5.84326231
H       -6.69621962      -2.19038154       5.14536213
H       -2.56330344      -3.46253753       4.91609228
H       -3.24377145      -5.71974684       5.60173051
H       -5.09090105      -0.72195426       4.43150243
H       -4.31841986       1.17527934       5.62776287
H       -2.99113272       4.80494573       1.03410271
H       -1.48367947       4.74839684       0.12356294
H       -1.43326176       5.10757955       1.85789883
H       -0.48066051       2.66421036      -0.24825079
H       -1.43673092      -0.73303989       2.16618089
H       -4.98650712       5.17345761       3.46645528
H       -6.21237708       6.88646767       4.72575927
H       -5.62981481       4.64340120       8.35462414
H       -4.38903669       2.94134058       7.11897485
F        0.26083039      -9.56561090      -4.46824181
C        0.65110447      -8.72003967      -3.50625921
C        0.72377013      -9.16333755      -2.19291599
C        1.12367793      -8.27698607      -1.18913854
C        1.46013103      -6.95027293      -1.49850049
C        1.38664251      -6.52587558      -2.82880892
C        0.97712768      -7.41076836      -3.83226533
N        1.84956197      -6.11982605      -0.42639419
C        2.29850364      -4.81147784      -0.49771996
O        2.45001027      -4.13735380      -1.50647051
C        2.64140291      -4.21106795       0.82198782
C        3.49786334      -4.93967126       1.65362830
C        3.83319631      -4.41260235       2.88610119
N        3.33372805      -3.22277865       3.29379061
C        2.53359490      -2.49329845       2.49329986
C        2.06869366      -1.25221834       2.94988790
C        2.46753732      -0.75588096       4.31619172
C        1.25554594      -0.44250251       2.14133673
C        0.88103881      -0.88103881       0.88103881
C        1.31068247      -2.12023795       0.41968799
C        2.15090864      -2.94307052       1.21280749
C        4.73549971      -5.08780626       3.84425785
C        4.59894038      -4.87258961       5.23026870
C        5.44311868      -5.49341810       6.15746257
C        6.44754888      -6.34406779       5.71071796
Br       7.59564984      -7.18178117       6.95556153
C        6.61566310      -6.57465696       4.34915352
C        5.76835040      -5.94899585       3.42628764
H        0.46836259     -10.19118655      -1.95892811
H        1.17488982      -8.64312937      -0.16681898
H        1.62822834      -5.50846318      -3.11983332
H        0.91074191      -7.07970675      -4.86469355
H        1.77224854      -6.53387168       0.49432899
H        3.89841611      -5.89383561       1.32921035
H        2.24223654      -1.50852910       5.07941552
H        1.91982333       0.15273458       4.58855049
H        3.53744894      -0.52489442       4.33639679
H        0.92152176       0.52753677       2.50263510
H        1.00289116      -2.44101876      -0.57403800
H        3.82160639      -4.20442091       5.60039271
H        5.30758453      -5.29894613       7.21807335
H        7.40711279      -7.22870432       3.99202304
H        5.95038565      -6.12985892       2.36910754
