194
Properties=species:S:1:pos:R:3 pbc="F F F"
F        2.74303439      -4.46761415      -9.81249132
C        2.88134288      -3.35991740      -9.07317153
C        4.10961024      -2.71486989      -9.02916341
C        4.25403457      -1.56334386      -8.25054683
C        3.16901422      -1.05065389      -7.52325521
C        1.93857752      -1.71188793      -7.58673166
C        1.79668368      -2.87011216      -8.35877127
N        3.40025487       0.11293539      -6.75951564
C        2.47125300       0.83848778      -6.03223281
O        1.27491576       0.60920845      -5.92648142
C        3.03516326       2.03038276      -5.33862474
C        3.80133563       2.91423769      -6.10530165
C        4.34186846       4.02804151      -5.49170195
N        4.15121110       4.25714259      -4.17165570
C        3.39020716       3.43402304      -3.42567510
C        3.19721482       3.73336351      -2.06993365
C        3.83676035       4.96046709      -1.47209463
C        2.38949660       2.92167241      -1.25792825
C        1.79094283       1.79094283      -1.79094283
C        1.99061473       1.46258692      -3.12711883
C        2.78511219       2.28215178      -3.96923476
C        5.16023793       5.03473798      -6.20229998
C        6.14431317       5.77267496      -5.51452264
C        6.92742315       6.73518523      -6.16110304
C        6.73619471       6.97990164      -7.51595035
Br       7.78518574       8.28206145      -8.39545742
C        5.76921281       6.27477433      -8.22519851
C        4.98772876       5.31383910      -7.57177810
H        4.94416911      -3.11122019      -9.59738418
H        5.22361011      -1.07212293      -8.22942510
H        1.07067384      -1.36128376      -7.03718019
H        0.84383548      -3.38989054      -8.40152224
H        4.36029363       0.43374772      -6.73611994
H        3.95615763       2.73192824      -7.16308828
H        4.91290480       4.97105246      -1.67593597
H        3.71498681       4.98650036      -0.38386415
H        3.37832641       5.86452926      -1.88559654
H        2.23257158       3.18055261      -0.21320797
H        1.50875345       0.56952729      -3.52130325
H        6.30546568       5.60006310      -4.45060331
H        7.67386250       7.28574216      -5.59471143
H        5.60557011       6.46998307      -9.28199904
H        4.22132619       4.80514983      -8.15258818
F       -1.01448549     -10.52681106       3.45338499
C       -1.42487971      -9.67505233       2.50533503
C       -1.50735010     -10.10454276       1.18798910
C       -1.92829794      -9.21165333       0.19871373
C       -2.27595493      -7.89231037       0.52664976
C       -2.19226186      -7.48189705       1.86073767
C       -1.76172796      -8.37321666       2.84960183
N       -2.68657352      -7.05444318      -0.53168920
C       -3.14917126      -5.75208431      -0.44071803
O       -3.29682192      -5.09093232       0.57714861
C       -3.51348960      -5.14095723      -1.74972392
C       -4.37108981      -5.86985176      -2.57993341
C       -4.72605086      -5.33293926      -3.80262180
N       -4.24441476      -4.13313945      -4.20245517
C       -3.44349393      -3.40365443      -3.40275693
C       -2.99753752      -2.15244993      -3.85052452
C       -3.41716157      -1.64549307      -5.20666743
C       -2.18440329      -1.34268269      -3.04201128
C       -1.79094283      -1.79094283      -1.79094283
C       -2.20161349      -3.03992397      -1.33878302
C       -3.04150424      -3.86328120      -2.13171329
C       -5.63149967      -6.00755191      -4.75822431
C       -5.51289025      -5.77545703      -6.14316348
C       -6.36047703      -6.39539251      -7.06784188
C       -7.35033624      -7.26215746      -6.61955300
Br      -8.50296504      -8.09883641      -7.86090316
C       -7.50060031      -7.50970572      -5.25887962
C       -6.64998167      -6.88485506      -4.33850923
H       -1.24319811     -11.12680382       0.93966883
H       -1.98690883      -9.56698612      -0.82701734
H       -2.44183836      -6.47054890       2.16581699
H       -1.68744259      -8.05290311       3.88487851
H       -2.61500424      -7.45735766      -1.45779939
H       -4.75737061      -6.83198845      -2.26181509
H       -3.19210109      -2.38705502      -5.98073712
H       -2.88264874      -0.72782637      -5.47487622
H       -4.48972875      -1.42631151      -5.21241195
H       -1.86523253      -0.36501018      -3.39608945
H       -1.87915661      -3.36823481      -0.35219258
H       -4.74721556      -5.09454738      -6.51436914
H       -6.23901281      -6.18766050      -8.12764278
H       -8.28069132      -8.17650999      -4.90035091
H       -6.81813062      -7.07946339      -3.28147017
F       -6.61972658      -5.54564621       7.01383119
C       -6.25950229      -4.30994845       6.64504318
C       -7.22757957      -3.32317188       6.51949607
C       -6.85056986      -2.03604391       6.12671159
C       -5.50522974      -1.73203706       5.86842286
C       -4.54497560      -2.73893214       6.00737778
C       -4.92382875      -4.02991517       6.39142921
N       -5.21004102      -0.41024230       5.47290719
C       -3.95895828       0.13844985       5.24456545
O       -2.87700282      -0.42044327       5.35404608
C       -3.98554910       1.57351887       4.84510278
C       -4.72450602       2.44801419       5.64835476
C       -4.77261211       3.78524194       5.30375787
N       -4.13293286       4.24406788       4.20300864
C       -3.39105096       3.42233225       3.43652209
C       -2.72177685       3.95345736       2.32527777
C       -2.83967025       5.42222688       2.00742494
C       -1.91364884       3.14307545       1.51237297
C       -1.79094283       1.79094283       1.79094283
C       -2.46703336       1.23971008       2.87357704
C       -3.27051583       2.04623042       3.71975247
C       -5.51364652       4.80221521       6.08141417
C       -6.03480716       5.94834822       5.44835538
C       -6.73371085       6.92852537       6.16147521
C       -6.92211576       6.77939431       7.53053662
Br      -7.85948914       8.10109259       8.50212288
C       -6.41575487       5.66381849       8.18961229
C       -5.71585494       4.68718952       7.47030149
H       -8.26557636      -3.56090303       6.72565978
H       -7.62317186      -1.27682340       6.03456382
H       -3.49270170      -2.55807141       5.81193999
H       -4.18001226      -4.81527683       6.49073175
H       -6.01278400       0.18951446       5.32786283
H       -5.23868362       2.08215600       6.53033453
H       -3.89225840       5.71939029       1.94824454
H       -2.38282275       5.66144563       1.04108294
H       -2.33561213       6.01647633       2.77636376
H       -1.38378871       3.57579737       0.66674608
H       -2.35337999       0.17517982       3.07102418
H       -5.89243389       6.08689496       4.37680324
H       -7.11724910       7.79982464       5.63724235
H       -6.54836271       5.54697501       9.26221450
H       -5.30866909       3.84490496       8.02549014
F        1.17701284     -10.47339707      -3.56249834
C        1.56647825      -9.62808189      -2.59996313
C        1.63875487     -10.07193483      -1.28678593
C        2.03781706      -9.18585381      -0.28243333
C        2.37381481      -7.85885203      -0.59105131
C        2.30073140      -7.43389239      -1.92120254
C        1.89206137      -8.31851916      -2.92523775
N        2.76239461      -7.02871086       0.48160044
C        3.21078268      -5.72013020       0.41106071
O        3.36243880      -5.04548718      -0.59732035
C        3.55282299      -5.12015757       1.73119019
C        4.40923732      -5.84874981       2.56288785
C        4.74378316      -5.32208249       3.79574627
N        4.24360030      -4.13266482       4.20374427
C        3.44349892      -3.40318445       3.40322192
C        2.97783825      -2.16251681       3.86015691
C        3.37584867      -1.66661250       5.22686090
C        2.16469001      -1.35280304       3.05160421
C        1.79094283      -1.79094283       1.79094283
C        2.22134722      -3.02974315       1.32923012
C        3.06158668      -3.85255464       2.12235741
C        5.64595997      -5.99731143       4.75400449
C        5.50868449      -5.78277606       6.14005021
C        6.35272573      -6.40364174       7.06734395
C        7.35773614      -7.25364214       6.62066842
Br       8.50565495      -8.09139887       7.86565078
C        7.52656246      -7.48354685       5.25907634
C        6.67938273      -6.85785190       4.33611134
H        1.38370263     -11.10000255      -1.05337208
H        2.08873554      -9.55243156       0.73974519
H        2.54199209      -6.41624193      -2.21166376
H        1.82598924      -7.98702535      -3.95754740
H        2.68485467      -7.44320295       1.40210367
H        4.81036204      -6.80258966       2.23822245
H        3.15054336      -2.41970275       5.98964713
H        2.82760643      -0.75836397       5.49938092
H        4.44564769      -1.43515653       5.24764800
H        1.83007027      -0.38307500       3.41318689
H        1.91414394      -3.35021691       0.33522315
H        4.73088615      -5.11512076       6.51012517
H        6.21663023      -6.20970500       8.12798086
H        8.31846437      -8.13708031       4.90200754
H        6.86197169      -7.03816049       3.27893202
C       -0.00445707       0.01189536      -1.78238275
H       -0.66409135       0.67374010      -2.43557963
H        0.65740317      -0.63156657      -2.45157240
C       -0.90989263      -0.90692880      -0.91072765
C        0.90977584       0.90977584      -0.90977584
C       -0.00465871       1.77757030       0.00794375
H       -0.66225468       2.44313916      -0.64384735
H        0.64322798       2.43503045       0.67728295
C       -1.78241447       0.00034974      -0.00472694
H       -2.45427497      -0.65498947       0.64260836
H       -2.43311707       0.67328779      -0.65473579
C       -0.91132561       0.90220522       0.91563759
C       -0.01476271      -0.02253852       1.78660255
H       -0.67934791      -0.69751639       2.42135241
H        0.63392994       0.61504881       2.47327442
C        0.01484550      -1.77751727      -0.01636693
H        0.67870853      -2.42144646      -0.68295456
H       -0.62264859      -2.45592969       0.64226336
C        1.78714474       0.01002794       0.00389507
H        2.44202412       0.67113390       0.66197326
H        2.45385902      -0.65136977      -0.64189061
C        0.91606151      -0.90478549       0.90901405
