57
Properties=species:S:1:pos:R:3 pbc="F F F"
C        0.00000000       0.00000000       0.00000000
N        0.14477165       3.43560222      -4.92700553
C        0.59147985       2.92680934      -3.98514402
C        1.14352328       2.29805803      -2.82124135
C        0.33657509       1.49013231      -2.01282711
C        0.88190591       0.88190591      -0.88190591
C        2.22181533       1.06998516      -0.54806775
C        3.01896321       1.87621143      -1.35844113
C        2.48966993       2.49188683      -2.49294768
H       -0.71131891       1.33702735      -2.26518107
H        2.64053300       0.59309664       0.33463060
H        3.12057965       3.11987474      -3.11965440
C        4.40459353       2.07636012      -1.02144093
C        5.56505892       2.24398465      -0.73920326
Br       7.44143330       2.51501933      -0.28284881
N       -4.96936357      -3.37312022      -0.16489560
C       -4.01522438      -2.88243805      -0.60577078
C       -2.83613223      -2.27609261      -1.15059782
C       -2.02773216      -1.46814599      -0.34365635
C       -0.88190591      -0.88190591      -0.88190591
C       -0.53318805      -1.09193408      -2.21474611
C       -1.34365901      -1.89801643      -3.01194035
C       -2.49294320      -2.49189344      -2.48966780
H       -2.29163823      -1.29800062       0.69874934
H        0.36108434      -0.63211833      -2.62796505
H       -3.11958704      -3.11997410      -3.12054765
C       -0.99133458      -2.12076975      -4.39029025
C       -0.69626287      -2.30732566      -5.54465829
Br      -0.21915687      -2.60897078      -7.41117379
N       -0.25853838       3.12163097       5.12721005
C       -0.67221171       2.70400270       4.12721880
C       -1.18343305       2.18790952       2.89148009
C       -0.37644802       1.38007991       2.08300658
C       -0.88190591       0.88190591       0.88190591
C       -2.18200174       1.17987312       0.47799338
C       -2.97946568       1.98523118       1.28891893
C       -2.48975033       2.49167180       2.49308231
H        0.64051635       1.14160873       2.38979713
H       -2.56976284       0.78842757      -0.45919137
H       -3.12056192       3.11993577       3.11961110
C       -4.32412035       2.29847722       0.87979701
C       -5.45026863       2.56082078       0.53715741
Br      -7.27115516       2.98500812      -0.01686185
N        5.33813386      -2.72083867       0.44840686
C        4.27691589      -2.41955192       0.80696540
C        2.96550161      -2.04725563       1.25006543
C        2.15698517      -1.23950759       0.44304175
C        0.88190591      -0.88190591       0.88190591
C        0.40412779      -1.32023072       2.11550973
C        1.21562099      -2.12451015       2.91348465
C        2.49320006      -2.49144806       2.48985632
H        2.52115235      -0.89201072      -0.52227357
H       -0.59049439      -1.03792638       2.45156705
H        3.11952293      -3.12010330       3.12048256
C        0.73046821      -2.58222817       4.18969819
C        0.32415277      -2.96556702       5.25852703
Br      -0.33282494      -3.58539352       6.98673286
