65
Properties=species:S:1:pos:R:3 pbc="F F F"
C        0.00000000       0.00000000       0.00000000
O        0.34535922       3.87491277      -6.05055061
N        1.18772865       3.52818367      -4.96997920
C        0.49092141       2.74598968      -4.13604704
H       -0.54303757       2.46652761      -4.32268669
C        1.10916479       2.22278253      -2.90891555
C        0.34232060       1.40763316      -2.06415589
C        0.88605822       0.88605822      -0.88605822
C        2.20634001       1.17442170      -0.53869572
O        2.73585553       0.66028759       0.61849067
C        2.97699488       1.98644738      -1.37598610
Br       4.77673619       2.39906715      -0.93409099
C        2.43404892       2.50626075      -2.55066852
H        0.96234233       4.42547399      -6.55946671
H       -0.68692886       1.18372007      -2.33653245
H        3.65439033       0.97871914       0.66964045
H        3.03285786       3.13796847      -3.20276598
O       -6.62698369      -2.59253314      -1.05130578
N       -5.35244819      -2.67731223      -1.65613111
C       -4.50433077      -1.92667592      -0.94195145
H       -4.81391665      -1.37369771      -0.05856236
C       -3.09086989      -1.81799219      -1.33200079
C       -2.23817683      -1.02049210      -0.55544072
C       -0.88605822      -0.88605822      -0.88605822
C       -0.37007159      -1.54955658      -1.99982926
O        0.95762933      -1.41476287      -2.32051891
C       -1.21418199      -2.34640988      -2.77883648
Br      -0.54560924      -3.26331507      -4.30097003
C       -2.56248981      -2.47996215      -2.44852622
H       -7.12524057      -3.16680770      -1.65523475
H       -2.64211125      -0.50390478       0.31269235
H        1.10687315      -1.95142237      -3.11891980
H       -3.21993044      -3.09978302      -3.05387884
O       -1.39296327       2.15914406       6.71871528
N       -1.88210408       2.39066780       5.41311965
C       -1.16025313       1.64976244       4.56294257
H       -0.35057942       1.00327703       4.89232028
C       -1.43959372       1.68151164       3.11975750
C       -0.65846751       0.88980366       2.26583849
C       -0.88605822       0.88605822       0.88605822
C       -1.90017599       1.67596575       0.34331569
O       -2.12001367       1.66910175      -1.01146297
C       -2.68303083       2.46793839       1.18845914
Br      -4.07123431       3.55473251       0.48392752
C       -2.45544719       2.47118298       2.56434802
H       -1.98999638       2.74216594       7.21512069
H        0.13179241       0.27443502       2.69068106
H       -2.86054150       2.27917264      -1.17624512
H       -3.06405790       3.08687099       3.22266342
O        6.33514894      -3.35789242       0.57778125
N        5.15904927      -3.18470635       1.34213592
C        4.31787186      -2.41567454       0.63941173
H        4.56493599      -2.02644132      -0.34520059
C        2.99883368      -2.05943123       1.18259796
C        2.15011248      -1.25147868       0.41251850
C        0.88605822      -0.88605822       0.88605822
C        0.45534632      -1.32583980       2.13827131
O       -0.78609714      -0.96477271       2.59897688
C        1.29606778      -2.13163235       2.91172823
Br       0.74211756      -2.74781893       4.61995785
C        2.55653306      -2.49560683       2.43883829
H        6.83899200      -3.91766964       1.19062138
H        2.48747581      -0.90950627      -0.56365841
H       -0.88576623      -1.37134770       3.47788756
H        3.21123866      -3.12257643       3.03977721
