86
Properties=species:S:1:pos:R:3 pbc="F F F"
O        1.25526324       4.78481679      -6.96045464
N        2.09763268       4.43808770      -5.87988323
C        1.40082544       3.65589370      -5.04595107
H        0.36686645       3.37643163      -5.23259071
C        2.01906882       3.13268655      -3.81881957
C        1.25222462       2.31753718      -2.97405991
C        1.79596224       1.79596224      -1.79596224
C        3.11624403       2.08432572      -1.44859975
O        3.64575956       1.57019161      -0.29141335
C        3.88689891       2.89635140      -2.28589013
Br       5.68664022       3.30897118      -1.84399501
C        3.34395294       3.41616477      -3.46057255
H        1.87224635       5.33537801      -7.46937073
H        0.22297517       2.09362410      -3.24643648
H        4.56429436       1.88862316      -0.24026358
H        3.94276188       4.04787249      -4.11267001
O       -7.41568702      -3.87187061      -1.71297705
N       -6.18203890      -3.83212933      -2.40143537
C       -5.33679716      -3.07261614      -1.69325690
H       -5.62040989      -2.59867933      -0.75679958
C       -3.96255298      -2.84443626      -2.16358570
C       -3.11150825      -2.04189130      -1.39042217
C       -1.79596224      -1.79596224      -1.79596224
C       -1.31538812      -2.35147510      -2.98230628
O       -0.02350853      -2.10746158      -3.37639442
C       -2.15809280      -3.15264266      -3.75840497
Br      -1.53711970      -3.92439456      -5.37809216
C       -3.46992072      -3.39741746      -3.35335207
H       -7.91626901      -4.43914545      -2.32158063
H       -3.48779622      -1.60958900      -0.46565053
H        0.10514900      -2.58133112      -4.21699897
H       -4.12622467      -4.02068928      -3.95639043
O       -1.99081514       3.46184982       7.54786972
N       -2.58515826       3.56099946       6.26944588
C       -1.87078215       2.81063247       5.42125558
H       -0.99431730       2.24816151       5.73340999
C       -2.25106698       2.71533537       4.00417259
C       -1.47419776       1.91825911       3.15136485
C       -1.79596224       1.79596224       1.79596224
C       -2.90128372       2.47104450       1.27684128
O       -3.21337019       2.34804530      -0.05405097
C       -3.68050056       3.26761044       2.12102944
Br      -5.19129838       4.20005630       1.44825173
C       -3.35897552       3.38911864       3.47259610
H       -2.59377902       4.03744748       8.04576859
H       -0.61274741       1.39251013       3.55777820
H       -4.00692683       2.89134602      -0.20509175
H       -3.96466841       4.00847301       4.13016295
O        7.17497538      -4.40764487       1.41791442
N        6.02250741      -4.18732482       2.20577137
C        5.18300208      -3.41492961       1.50473851
H        5.41505940      -3.05561387       0.50521553
C        3.88663535      -3.01345235       2.07048723
C        3.03886893      -2.20358950       1.30136329
C        1.79596224      -1.79596224       1.79596224
C        1.38572937      -2.19486487       3.06857526
O        0.16500032      -1.79245191       3.54991229
C        2.22563558      -3.00229139       3.84121347
Br       1.69921261      -3.56352865       5.57686515
C        3.46500606      -3.40836974       3.34731446
H        7.68015546      -4.96477477       2.03206486
H        3.36024594      -1.89352349       0.30926632
H        0.07723753      -2.17525674       4.44068683
H        4.11905559      -4.03664531       3.94760348
C       -0.00445707       0.01189536      -1.78238275
H       -0.66409135       0.67374010      -2.43557963
H        0.65740317      -0.63156657      -2.45157240
C       -0.90989263      -0.90692880      -0.91072765
C        0.90977584       0.90977584      -0.90977584
C       -0.00465871       1.77757030       0.00794375
H       -0.66225468       2.44313916      -0.64384735
H        0.64322798       2.43503045       0.67728295
C       -1.78241447       0.00034974      -0.00472694
H       -2.45427497      -0.65498947       0.64260836
H       -2.43311707       0.67328779      -0.65473579
C       -0.91132561       0.90220522       0.91563759
C       -0.01476271      -0.02253852       1.78660255
H       -0.67934791      -0.69751639       2.42135241
H        0.63392994       0.61504881       2.47327442
C        0.01484550      -1.77751727      -0.01636693
H        0.67870853      -2.42144646      -0.68295456
H       -0.62264859      -2.45592969       0.64226336
C        1.78714474       0.01002794       0.00389507
H        2.44202412       0.67113390       0.66197326
H        2.45385902      -0.65136977      -0.64189061
C        0.91606151      -0.90478549       0.90901405
