185
Properties=species:S:1:pos:R:3 pbc="F F F"
C        0.00000000       0.00000000       0.00000000
C        4.54480602       8.25086585       0.71199911
O        4.90561841       6.95644352       0.23135822
C        5.53483071       6.17208328       1.15261918
O        5.79934025       6.52325116       2.29908160
C        5.83329375       4.87829978       0.58908551
C        6.42038215       3.75804225       1.14898528
C        6.48426639       2.77521914       0.13210365
C        5.93204976       3.34619233      -0.99582574
O        5.53159183       4.61983865      -0.72131686
C        5.75672888       2.91268640      -2.40191276
N        5.51421374       1.48142566      -2.51932781
N        6.59339630       0.71583177      -2.79149046
C        6.15452136      -0.54659407      -2.78721500
C        4.75953389      -0.56368082      -2.54365519
C        4.34884007       0.75340369      -2.37347858
C        3.00169445       1.24522491      -2.03578832
C        2.46536101       2.42948291      -2.55739499
C        1.17729644       2.85776220      -2.21158466
C        0.38172095       2.08240707      -1.37363589
C        0.88240770       0.88240770      -0.88240770
C        2.17951551       0.46974521      -1.19903312
C        7.07858508      -1.66607694      -3.00395043
C        6.63848184      -2.99769841      -2.98239608
C        7.53815577      -4.05037210      -3.18519603
C        8.88810768      -3.78608724      -3.41073046
C        9.33487423      -2.46844396      -3.43155298
C        8.44315859      -1.41563012      -3.23052068
H        3.84908303       8.16618773       1.55256154
H        4.04164192       8.78353430      -0.09975094
H        5.43562997       8.81791045       0.99885480
H        6.76944729       3.67501281       2.16973113
H        6.90096066       1.77826175       0.20220377
H        6.67208724       3.13660253      -2.96439099
H        4.95670778       3.45459804      -2.90231572
H        4.11904892      -1.43229468      -2.48554309
H        3.01243883       3.03456691      -3.27146812
H        0.79047037       3.79144536      -2.61394098
H       -0.62324274       2.41251585      -1.12469994
H        2.54663765      -0.46922937      -0.79121476
H        5.59405397      -3.24075450      -2.80741988
H        7.18405064      -5.07821096      -3.16714284
H        9.58034946      -4.60878650      -3.56805119
H        8.80970227      -0.39103032      -3.24877351
C       10.72876625      -2.18974081      -3.66174769
C       11.89615081      -1.95632692      -3.85453576
Br      13.78371291      -1.57891641      -4.16625777
C       -1.93945618      -9.19672563      -0.94749094
O       -2.73724687      -8.01544088      -0.87801595
C       -3.20059086      -7.72501398       0.37131004
O       -2.98409286      -8.40793021       1.36851326
C       -3.96826008      -6.50405223       0.34980429
C       -4.59169263      -5.80592757       1.36818109
C       -5.21800360      -4.68377529       0.77439701
C       -4.94375120      -4.75454492      -0.57577171
O       -4.18193714      -5.85435374      -0.83645646
C       -5.34625686      -3.96302909      -1.76204208
N       -5.50688904      -2.54718529      -1.46089288
N       -6.76632992      -2.13378546      -1.20060315
C       -6.66716687      -0.83751014      -0.89046528
C       -5.31647757      -0.42547453      -0.99755616
C       -4.56889045      -1.53657806      -1.37025384
C       -3.10890559      -1.62804052      -1.54576157
C       -2.50400172      -2.41043581      -2.53780139
C       -1.11065785      -2.46502603      -2.67095942
C       -0.29640198      -1.69812292      -1.84323901
C       -0.88240770      -0.88240770      -0.88240770
C       -2.27074683      -0.85206012      -0.72548689
C       -7.85178426      -0.06330205      -0.50137227
C       -7.76249662       1.29248207      -0.15316496
C       -8.90421074       2.01021474       0.22101630
C      -10.14842436       1.38253409       0.25313937
C      -10.24692539       0.03718038      -0.08823823
C       -9.11302993      -0.68285103      -0.46216819
H       -1.04960771      -9.09446559      -0.31863592
H       -1.61613874      -9.32447883      -1.98430958
H       -2.52402278     -10.07463473      -0.65602811
H       -4.59787609      -6.08923701       2.41238412
H       -5.81575801      -3.92506319       1.26380256
H       -6.31274039      -4.33106696      -2.12927341
H       -4.64777404      -4.07725943      -2.58858808
H       -4.92076762       0.56357139      -0.81510111
H       -3.09159962      -2.97040200      -3.25647222
H       -0.66378305      -3.09576101      -3.43631265
H        0.78292435      -1.73200462      -1.96489279
H       -2.69909798      -0.21137423       0.04184917
H       -6.80899316       1.81326400      -0.16499019
H       -8.82166295       3.06106091       0.48761953
H      -11.03037887       1.94673307       0.54403165
H       -9.20779335      -1.73474463      -0.72490749
C      -11.52936502      -0.61689254      -0.05451557
C      -12.60340821      -1.16467860      -0.02627283
Br     -14.34004521      -2.05040234       0.01939328
C       -8.71826053      -0.26253492       3.62794714
O       -7.42946055       0.04044939       4.16079377
C       -6.80893113      -1.01540371       4.76076739
O       -7.29496155      -2.13800923       4.86655749
C       -5.50614242      -0.62431839       5.24068400
C       -4.51393744      -1.35430168       5.86980335
C       -3.45026535      -0.45885331       6.13596985
C       -3.84793992       0.77137552       5.65475239
O       -5.09212020       0.67398754       5.10663960
C       -3.26494989       2.13355822       5.67281992
N       -1.81137558       2.12054709       5.58304454
N       -1.14254737       2.20445604       6.75371513
C        0.15316080       2.10790310       6.44039998
C        0.29531347       1.99926854       5.03555318
C       -0.98072534       2.01074622       4.48425078
C       -1.35636320       1.85859279       3.06775169
C       -2.42099939       2.55261742       2.47862210
C       -2.74083192       2.37997111       1.12584027
C       -1.96934431       1.54461651       0.32380308
C       -0.88240770       0.88240770       0.88240770
C       -0.58180208       1.02696584       2.23952592
C        1.18341039       2.11416688       7.48570208
C        2.54606553       1.99325742       7.17598763
C        3.51145686       1.99519737       8.18923919
C        3.12773314       2.11667293       9.52381112
C        1.77813075       2.23472722       9.84138678
C        0.81192261       2.23378581       8.83618594
H       -8.64118673      -1.03647133       2.85799382
H       -9.11367737       0.64598867       3.16526112
H       -9.40197388      -0.57169558       4.42440732
H       -4.56718558      -2.40690582       6.11444922
H       -2.51479483      -0.67457611       6.63679993
H       -3.52998425       2.62599919       6.61709732
H       -3.66783223       2.76350903       4.88228028
H        1.21759799       1.91080777       4.47908755
H       -3.00941440       3.27114240       3.03791705
H       -3.58489828       2.91488958       0.69606885
H       -2.21287546       1.43013842      -0.72904082
H        0.26907537       0.48797384       2.64972457
H        2.88108231       1.89468193       6.14711974
H        4.56464847       1.90185539       7.93577560
H        3.88326530       2.11807426      10.30480520
H       -0.23937000       2.32578334       9.10229213
C        1.37590341       2.35812365      11.21855288
C        1.03903801       2.46146816      12.37192950
Br       0.49435516       2.62856750      14.23684194
C        0.30457646      -2.74529385       9.03380244
O        0.42060920      -3.42551710       7.78457742
C       -0.74569006      -3.96823570       7.33174916
O       -1.81668436      -3.91068321       7.92951096
C       -0.53890227      -4.60651726       6.05489303
C       -1.42389230      -5.24688420       5.20644721
C       -0.67278342      -5.70343369       4.09673161
C        0.63185913      -5.31736341       4.32484529
O        0.71619548      -4.64757502       5.50897684
C        1.91835257      -5.53155260       3.62142286
N        1.76292350      -5.57796159       2.17408212
N        1.66647753      -6.80867900       1.62556200
C        1.46574345      -6.61023417       0.31916467
C        1.47548415      -5.22132202       0.04270208
C        1.67122157      -4.55668859       1.24781219
C        1.69275209      -3.10304120       1.48691439
C        2.54590226      -2.49172527       2.41461139
C        2.53535533      -1.10428436       2.60700361
C        1.70350257      -0.29591446       1.83834688
C        0.88240770      -0.88240770       0.88240770
C        0.86673295      -2.26941712       0.71214376
C        1.26666230      -7.74273154      -0.59293527
C        1.03451947      -7.55161560      -1.96295556
C        0.84090717      -8.64583209      -2.81375957
C        0.87557990      -9.94378617      -2.30661516
C        1.10280087     -10.14361630      -0.94843392
C        1.29672985      -9.05739808      -0.09607878
H       -0.39734971      -1.90978922       8.95026971
H        1.28870986      -2.34436824       9.29184906
H       -0.00539151      -3.43751003       9.82256710
H       -2.48358349      -5.37477508       5.38353739
H       -1.03063114      -6.26486037       3.24278941
H        2.34469518      -6.49275235       3.93563323
H        2.65825752      -4.77636896       3.87899507
H        1.34440934      -4.74785973      -0.91997174
H        3.26588163      -3.06482223       2.98777000
H        3.19307614      -0.65496402       3.34781656
H        1.71442743       0.78133145       1.98087707
H        0.20611133      -2.69957493      -0.03706322
H        0.99884104      -6.55415036      -2.39227205
H        0.66291648      -8.48418309      -3.87411706
H        0.72506736     -10.78825097      -2.97370417
H        1.47200357      -9.23160386       0.96383803
C        1.13729326     -11.48220449      -0.41872462
C        1.16618063     -12.60327209       0.02490692
Br       1.21288908     -14.41594359       0.74222161
