198
Properties=species:S:1:pos:R:3 pbc="F F F"
C        1.57914834      12.91114967      -2.05840259
O        2.37493684      11.73835777      -2.23103444
C        1.68837615      10.67227967      -2.74307123
O        0.48773767      10.68099503      -2.99051702
C        2.59690193       9.57019350      -2.96507152
C        3.94225653       9.39458417      -2.69419888
C        4.30313266       8.12305739      -3.20196845
C        3.16282080       7.58311444      -3.76243305
O        2.11920958       8.44880749      -3.59264994
C        2.84228108       6.33812264      -4.51674750
N        4.01506459       5.49622653      -4.73998886
N        4.95835583       5.93818877      -5.60547164
C        5.86863183       4.95878805      -5.66966011
C        5.46954641       3.86940387      -4.85862453
C        4.26606207       4.22285520      -4.27373003
C        3.40353202       3.41460952      -3.41338356
C        3.08472053       2.10163182      -3.80134534
C        2.28146425       1.29170482      -2.99456946
C        1.79135058       1.79135058      -1.79135058
C        2.10571516       3.08724034      -1.38574231
C        2.91761252       3.89244920      -2.19178399
C        7.06221876       5.07293483      -6.51030986
C        8.20798519       4.30772208      -6.24627887
C        9.34070425       4.41731310      -7.06002299
C        9.33274502       5.29210224      -8.14431856
Br      10.86255186       5.43631409      -9.24470487
C        8.20619369       6.06192836      -8.42091671
C        7.07722370       5.95367268      -7.60364325
H        0.76140618      12.72403719      -1.35546209
H        1.19141635      13.25465761      -3.02304914
H        2.21752753      13.69716372      -1.64518678
H        4.58973387      10.11601002      -2.21323276
H        5.28768246       7.67339185      -3.20046444
H        2.44789950       6.58924911      -5.50829009
H        2.07661708       5.75930466      -3.99545353
H        5.97987331       2.92477751      -4.73206008
H        3.45932343       1.69926717      -4.74089780
H        2.04902674       0.27917142      -3.31464504
H        1.73017770       3.47659692      -0.44275591
H        3.17329856       4.89076703      -1.84367938
H        8.24125623       3.62807165      -5.39869797
H       10.22045312       3.81963565      -6.83657322
H        8.19165048       6.74724558      -9.26403250
H        6.20062757       6.55962616      -7.82753949
C       -0.74527099     -12.80063785      -3.00279176
O       -1.64077694     -11.68868230      -3.01486981
C       -1.08370351     -10.53262897      -3.48739457
O        0.08912472     -10.42181550      -3.82655894
C       -2.08988987      -9.49653910      -3.54573798
C       -3.41740738      -9.45544867      -3.15818354
C       -3.91646021      -8.18318830      -3.52850999
C       -2.87205317      -7.50818097      -4.12813415
O       -1.75425533      -8.29409006      -4.11232162
C       -2.71268075      -6.18629421      -4.79817625
N       -3.96144700      -5.43070524      -4.85912774
N       -4.93689607      -5.88192213      -5.68319805
C       -5.92216443      -4.98003856      -5.59487700
C       -5.54187210      -3.92690529      -4.72879741
C       -4.27003542      -4.22254426      -4.27006761
C       -3.40350141      -3.41377785      -3.41424584
C       -3.22045749      -2.05274488      -3.71449532
C       -2.41742138      -1.24313262      -2.90718453
C       -1.79135058      -1.79135058      -1.79135058
C       -1.96981885      -3.13639563      -1.47248333
C       -2.78174243      -3.94209951      -2.27800377
C       -7.16949013      -5.12841077      -6.34756254
C       -8.34475849      -4.48432799      -5.93289965
C       -9.52971309      -4.62515971      -6.66316754
C       -9.54500076      -5.40998223      -7.81418282
Br     -11.14576273      -5.59630519      -8.80150289
C       -8.38951778      -6.05928586      -8.24023513
C       -7.20788984      -5.92036648      -7.50628332
H        0.11150786     -12.60057848      -2.35183482
H       -0.41422024     -13.03510122      -4.01980165
H       -1.28433750     -13.66679501      -2.60874552
H       -3.96482938     -10.26342262      -2.69072465
H       -4.92917322      -7.81887823      -3.41348731
H       -2.38439709      -6.32634544      -5.83469616
H       -1.95303922      -5.58741714      -4.29091890
H       -6.11115599      -3.04084082      -4.48471409
H       -3.70221884      -1.61185301      -4.58541656
H       -2.29134374      -0.19305142      -3.15844804
H       -1.48784510      -3.56455057      -0.59713487
H       -2.92967046      -4.98216294      -1.99591157
H       -8.35936116      -3.87723806      -5.03142663
H      -10.43116288      -4.12215267      -6.32334644
H       -8.39271101      -6.67391605      -9.13630151
H       -6.30897138      -6.43182501      -7.84699683
C      -10.31544752      -1.76155637       7.99480945
O       -9.28045801      -0.78841429       7.85228534
C       -9.00575581      -0.45646320       6.55443444
O       -9.54762151      -0.97092978       5.58255799
C       -8.01537947       0.59583468       6.52095280
C       -7.28812437       1.23121352       7.51170170
C       -6.51574577       2.23450029       6.87791244
C       -6.80993452       2.16772751       5.53070627
O       -7.69823555       1.15321307       5.30921838
C       -6.42274120       2.95118634       4.32322368
N       -5.54104803       4.07275048       4.63748147
N       -6.06501525       5.12158327       5.31541772
C       -5.07411760       6.01706256       5.40589983
C       -3.92087082       5.53578508       4.74091891
C       -4.23825899       4.28588696       4.23850135
C       -3.41751388       3.40726997       3.40674125
C       -2.76654210       3.94046930       2.28068628
C       -1.95626550       3.13676307       1.47470996
C       -1.79135058       1.79135058       1.79135058
C       -2.42078483       1.24797766       2.90993532
C       -3.22429376       2.05768719       3.71986476
C       -5.25730800       7.29950959       6.08864585
C       -4.15907276       8.01667145       6.58624192
C       -4.34312402       9.24522189       7.22969442
C       -5.62752059       9.76443309       7.37721214
Br      -5.87405591      11.42593166       8.24358325
C       -6.73021649       9.06628979       6.89253247
C       -6.54389149       7.83684350       6.25380464
H      -10.03499555      -2.69942775       7.50533766
H      -11.25784409      -1.37851038       7.58978939
H      -10.45414322      -1.95628488       9.06201969
H       -7.33634896       1.01227149       8.57035619
H       -5.85790974       2.95113177       7.35249724
H       -7.31395181       3.38060195       3.85088493
H       -5.93826563       2.30694234       3.58616730
H       -2.97583210       6.04558127       4.61529753
H       -2.88885293       4.99033682       2.02029866
H       -1.46198826       3.57132843       0.60952650
H       -2.28707808       0.19925044       3.16320201
H       -3.68411705       1.62032328       4.60330464
H       -3.14935361       7.62513947       6.49353277
H       -3.48029484       9.78371679       7.61265035
H       -7.73546363       9.46350083       7.00396410
H       -7.41212798       7.29780925       5.87785598
C       10.79730153       1.61359332       7.36499239
O        9.70886673       0.69039244       7.32585477
C        9.34994519       0.30886874       6.06265060
O        9.86493532       0.74483329       5.03914769
C        8.30778853      -0.69017417       6.13420424
C        7.60284470      -1.23602559       7.19216929
C        6.74895078      -2.22769150       6.65151622
C        6.97476185      -2.24396925       5.28963719
O        7.89979688      -1.28998774       4.97088239
C        6.48582184      -3.06536494       4.14596443
N        5.56690799      -4.12182137       4.56255062
N        6.07273074      -5.16156710       5.26771840
C        5.04442534      -5.99797780       5.45467684
C        3.88327968      -5.49050434       4.82379078
C        4.23588955      -4.28574907       4.24100868
C        3.41745899      -3.40783584       3.40623028
C        2.68224205      -3.96167022       2.34378541
C        1.87186326      -3.15773155       1.53814372
C        1.79135058      -1.79135058       1.79135058
C        2.50520235      -1.22660899       2.84688647
C        3.30873924      -2.03598101       3.65712546
C        5.19893982      -7.25253582       6.19398781
C        4.09393676      -7.88508532       6.78296405
C        4.24993646      -9.08789973       7.48020415
C        5.51273991      -9.66599463       7.59043128
Br       5.72114232     -11.29275445       8.52967405
C        6.62192074      -9.05200232       7.01511570
C        6.46394691      -7.84793837       6.32265435
H       10.53872510       2.53927412       6.84145447
H       11.69672339       1.16167676       6.93407647
H       11.00156733       1.85388267       8.41219337
H        7.71763886      -0.96725061       8.23408718
H        6.08199876      -2.88405332       7.19548667
H        7.32832882      -3.56420041       3.65290946
H        5.99603710      -2.43417613       3.40116204
H        2.90862328      -5.95547407       4.77261356
H        2.73800750      -5.02822966       2.13325124
H        1.31159728      -3.60839563       0.72285028
H        2.43763907      -0.16094293       3.05094854
H        3.83574356      -1.57979840       4.49220301
H        3.10158536      -7.44605496       6.72038553
H        3.38261750      -9.56038393       7.93366056
H        7.61051378      -9.49552481       7.09688997
H        7.33705486      -7.37485051       5.87588785
C       -0.00445707       0.01189536      -1.78238275
H       -0.66409135       0.67374010      -2.43557963
H        0.65740317      -0.63156657      -2.45157240
C       -0.90989263      -0.90692880      -0.91072765
C        0.90977584       0.90977584      -0.90977584
C       -0.00465871       1.77757030       0.00794375
H       -0.66225468       2.44313916      -0.64384735
H        0.64322798       2.43503045       0.67728295
C       -1.78241447       0.00034974      -0.00472694
H       -2.45427497      -0.65498947       0.64260836
H       -2.43311707       0.67328779      -0.65473579
C       -0.91132561       0.90220522       0.91563759
C       -0.01476271      -0.02253852       1.78660255
H       -0.67934791      -0.69751639       2.42135241
H        0.63392994       0.61504881       2.47327442
C        0.01484550      -1.77751727      -0.01636693
H        0.67870853      -2.42144646      -0.68295456
H       -0.62264859      -2.45592969       0.64226336
C        1.78714474       0.01002794       0.00389507
H        2.44202412       0.67113390       0.66197326
H        2.45385902      -0.65136977      -0.64189061
C        0.91606151      -0.90478549       0.90901405
