185
Properties=species:S:1:pos:R:3 pbc="F F F"
C        0.00000000       0.00000000       0.00000000
C        0.88054645       0.88054645      -0.88054645
C        2.07118101       0.35305345      -1.39523181
C        2.86706571       1.14331882      -2.21171487
C        2.47165693       2.45025091      -2.50467487
C        1.29964302       3.01531500      -1.95362145
C        0.50132017       2.20465204      -1.14475350
C        1.06402641       4.45369948      -2.16519017
N       -0.09993855       5.10972514      -2.56384829
N        0.12429898       6.40527183      -2.82359906
C        1.40197869       6.64490594      -2.54831983
C        1.95152572       7.96697286      -2.82653245
C        1.18985707       9.11498543      -2.55561613
C        1.63916755      10.37652626      -2.94703444
C        2.86080145      10.50156205      -3.60565091
C        3.62815512       9.36660745      -3.86151197
C        3.18166587       8.10180836      -3.47961873
C        2.00594007       5.47652426      -2.04114175
Cl       3.59493754       5.37555652      -1.42212307
C       -1.50593442       4.66781280      -2.51270439
C       -2.46829701       5.11710479      -3.62322915
C       -3.22947240       4.09217447      -4.23520299
C       -4.16566775       4.35438205      -5.24255625
C       -4.35040029       5.65038265      -5.69572346
C       -3.65592835       6.68555845      -5.08575950
C       -2.77262209       6.44848752      -4.00807935
C       -2.23253257       7.69470475      -3.35906435
H        2.38535071      -0.66038190      -1.15835066
H        3.80415385       0.75940286      -2.60888129
H        3.12059733       3.04614643      -3.14434968
H       -0.39683732       2.59689587      -0.67856408
H        0.22272373       9.02406134      -2.06486335
H        1.02677067      11.25323658      -2.75642572
H        3.19838596      11.48327086      -3.92564453
H        3.77167016       7.22587708      -3.73039168
H       -1.89713054       4.99962104      -1.54170491
H       -1.47029674       3.57689981      -2.49957133
H       -3.11925545       3.05785038      -3.91314269
H       -4.74638320       3.54456329      -5.67371781
H       -5.04963197       5.86286076      -6.50013474
H       -3.82449649       7.70397374      -5.43375617
H       -1.35485505       8.05524717      -3.90345062
H       -2.01615446       7.54168484      -2.29957526
H       -2.97649155       8.50038475      -3.39118152
C        4.88456230       9.49561973      -4.55317435
C        5.93680330       9.60366752      -5.13244159
Br       7.63818802       9.77837164      -6.06906773
C       -0.88054645      -0.88054645      -0.88054645
C       -1.69638823      -0.27743249      -1.84564556
C       -2.48576447      -1.07450443      -2.66183049
C       -2.45738992      -2.46212426      -2.50706854
C       -1.67876488      -3.08433202      -1.50548257
C       -0.87906802      -2.27136618      -0.70029150
C       -1.85727690      -4.53101710      -1.29462206
N       -0.89425072      -5.52896434      -1.15041983
N       -1.44157400      -6.75230101      -1.15929486
C       -2.75789929      -6.59228013      -1.24502505
C       -3.60919586      -7.77044456      -1.36539061
C       -3.32445153      -8.92192937      -0.61407773
C       -4.03835855     -10.10249266      -0.82187704
C       -5.05125721     -10.13856749      -1.77818970
C       -5.34877022      -8.99315401      -2.51435031
C       -4.63425166      -7.81187778      -2.31696351
C       -3.07109250      -5.21790162      -1.23461195
Cl      -4.64883725      -4.56532231      -1.17845757
C        0.52738199      -5.43118441      -0.77078036
C        1.53326542      -6.41191061      -1.39339175
C        2.69403396      -5.83211935      -1.95981968
C        3.70974470      -6.60232223      -2.53869302
C        3.58428819      -7.98061163      -2.59938238
C        2.48234023      -8.58592301      -2.01180681
C        1.49134987      -7.82940490      -1.34588975
C        0.45748519      -8.65304776      -0.62567395
H       -1.72761050       0.80332415      -1.95903312
H       -3.13936905      -0.62619635      -3.40687260
H       -3.09207170      -3.05927353      -3.15974821
H       -0.27993230      -2.69699309       0.09830275
H       -2.51796177      -8.91028745       0.11660080
H       -3.78879246     -10.99400729      -0.25363322
H       -5.59211628     -11.06481656      -1.95036851
H       -4.84947079      -6.94487414      -2.93359399
H        0.56069943      -5.52753886       0.32264401
H        0.82884347      -4.41267124      -1.02234663
H        2.83765874      -4.75298975      -1.93640661
H        4.59566545      -6.12322540      -2.94433795
H        4.34981408      -8.58730401      -3.07587359
H        2.40346221      -9.67191452      -2.04478112
H       -0.33745538      -8.95067551      -1.31571185
H        0.05985218      -8.13414166       0.24918384
H        0.90194745      -9.57839779      -0.23862439
C       -6.38731807      -9.03506268      -3.51097563
C       -7.25710190      -9.07016118      -4.34564933
Br      -8.66346878      -9.12691249      -5.69524612
C       -0.88054645       0.88054645       0.88054645
C       -0.28208960       1.88053183       1.65684483
C       -1.07983434       2.69651034       2.44575471
C       -2.46337693       2.50692086       2.45628493
C       -3.07907602       1.47094132       1.71856213
C       -2.26597959       0.66608078       0.91866534
C       -4.51512910       1.22906125       1.93872571
N       -5.53254947       1.03600766       1.00507776
N       -6.74185544       1.02855367       1.58276076
C       -6.55165182       1.15144516       2.89210749
C       -7.71113824       1.26420866       3.76968413
C       -8.84993515       0.47778152       3.53274196
C      -10.01741567       0.67439260       4.27091998
C      -10.05266930       1.65482067       5.26052443
C       -8.91924220       2.42627805       5.51075429
C       -7.75132743       2.24007510       4.77169042
C       -5.17014631       1.18283493       3.17062485
Cl      -4.47766084       1.18267995       4.73227634
C       -5.46028046       0.62308366      -0.40878135
C       -6.48092817       1.19570692      -1.40459816
C       -5.94442944       1.74673609      -2.59326047
C       -6.75382186       2.28058991      -3.60314123
C       -8.12969320       2.31043549      -3.44442287
C       -8.69261165       1.73615607      -2.31337813
C       -7.89530484       1.11435065      -1.32571071
C       -8.67474453       0.40041071      -0.25391871
H        0.79589705       2.02128008       1.65793644
H       -0.63452432       3.46865920       3.06925448
H       -3.06100450       3.16051454       3.08957441
H       -2.68592631      -0.15765102       0.35034734
H       -8.83971380      -0.27253844       2.74447306
H      -10.90016434       0.07821815       4.05805048
H      -10.96935974       1.81772891       5.82021270
H       -6.89514414       2.88313370       4.94966109
H       -5.52975996      -0.47287640      -0.41268816
H       -4.45619207       0.89198151      -0.74199919
H       -4.86892143       1.74630964      -2.76349344
H       -6.30711561       2.67540080      -4.51061852
H       -8.76692194       2.75232518      -4.20588359
H       -9.77681506       1.74433218      -2.20791381
H       -8.97003092       1.10277350       0.53103832
H       -8.12424775      -0.45105971       0.15191760
H       -9.60069165      -0.02044252      -0.66517440
C       -8.96071263       3.44749812       6.52514563
C       -8.99544412       4.30276993       7.37469837
Br      -9.05160199       5.68567210       8.74835330
C        0.88054645      -0.88054645       0.88054645
C        1.51085659      -1.99501358       0.31359610
C        2.32761263      -2.78915556       1.10533121
C        2.50592434      -2.46799439       2.45266398
C        1.83825878      -1.37707704       3.05324365
C        1.03024752      -0.57857974       2.24189844
C        1.93814713      -1.22951496       4.51525397
N        2.21042155      -0.09079553       5.27241781
N        2.39985622      -0.38779993       6.56551372
C        2.19971217      -1.69441096       6.70108134
C        2.42858920      -2.31587476       8.00056708
C        2.03035860      -1.65592752       9.17417250
C        2.36885674      -2.16596144      10.42791006
C        3.10187774      -3.34759833      10.51853834
C        3.48466590      -4.01510552       9.35650312
C        3.15606003      -3.50702770       8.10000523
C        1.81371580      -2.24690221       5.46298807
Cl       1.31554245      -3.86203031       5.21504437
C        2.08989923       1.33634336       4.92102691
C        3.09842634       2.33549589       5.50910648
C        3.72133971       3.20507660       4.58164196
C        4.64125604       4.18454009       4.97455459
C        4.99451918       4.30725355       6.30844019
C        4.36826001       3.50348217       7.25061175
C        3.37298785       2.57029675       6.88125368
C        2.68321684       1.90284598       8.04086567
H        1.36345177      -2.25221044      -0.73234274
H        2.81377181      -3.66900479       0.68966140
H        3.14911541      -3.11382340       3.04815464
H        0.47756710       0.25741480       2.65847033
H        1.48003249      -0.71901649       9.11259945
H        2.07879214      -1.63032222      11.32731862
H        3.37977341      -3.73148401      11.49604394
H        3.50439084      -4.01649248       7.20705561
H        1.07422899       1.63889404       5.20886045
H        2.15076077       1.37647652       3.83189015
H        3.47622050       3.14677842       3.52229554
H        5.08275395       4.84757487       4.23671882
H        5.73229552       5.04104259       6.62211059
H        4.63614768       3.62267596       8.29976171
H        3.26300345       1.03959169       8.38043098
H        1.65380028       1.62881310       7.80011846
H        2.61028063       2.58900417       8.89379826
C        4.25275743      -5.22947012       9.45112882
C        4.89603409      -6.24650047       9.53037785
Br       5.93615804      -7.89095253       9.65851682
