198
Properties=species:S:1:pos:R:3 pbc="F F F"
C        1.79087052       1.79087052      -1.79087052
C        1.75885050       1.63935919      -3.17547856
C        2.56162679       2.45196960      -3.98647469
C        3.41779754       3.40748835      -3.42326851
C        3.42337988       3.54840405      -2.02206664
C        2.61519073       2.74747736      -1.20965880
C        4.27834086       4.27673785      -4.23903242
N        4.59304058       5.49740799      -3.78335662
N        5.36737357       6.05209903      -4.73930088
C        5.87048332       7.40315821      -4.48470899
C        4.99631091       8.50482075      -5.05306918
C        5.58805324       9.73186111      -5.38999751
C        4.81998803      10.77606605      -5.90642053
C        3.44814271      10.61110605      -6.09130709
C        2.83130822       9.40403019      -5.75396806
C        1.34847648       9.23999855      -5.92037947
C        3.60579291       8.36859092      -5.21088778
C        5.63885759       5.20224057      -5.79266558
C        6.53505690       5.49037307      -6.92503104
C        6.44794764       6.68333519      -7.65651596
C        7.31469486       6.93863581      -8.72507449
C        8.25199895       5.98124115      -9.10153607
Br       9.40137819       6.31296212     -10.56424099
C        8.34019277       4.77810332      -8.41126711
C        7.49426124       4.54328598      -7.32125120
C        4.91872559       4.05126845      -5.49436931
Cl       4.84786389       2.62488238      -6.43009642
H        1.10905188       0.89996983      -3.63638967
H        2.48279128       2.33003355      -5.06345586
H        4.06034465       4.29607647      -1.55251396
H        2.63864526       2.88416248      -0.13173091
H        6.88583202       7.45096383      -4.89364354
H        5.94604163       7.52711625      -3.39751186
H        6.65641957       9.88646600      -5.25120980
H        5.28955757      11.72226851      -6.16266965
H        2.85973604      11.43627599      -6.49408196
H        1.06726756       8.18306895      -5.94559795
H        1.01632393       9.68652056      -6.86448291
H        0.82167844       9.72216631      -5.09218383
H        3.10545545       7.44705307      -4.91443453
H        5.69197127       7.42719688      -7.42655599
H        7.23545142       7.88072366      -9.26427212
H        9.05177247       4.01748856      -8.70775698
H        7.59255378       3.59889843      -6.78753821
C       -1.79087052      -1.79087052      -1.79087052
C       -2.81090563      -2.54632016      -1.21646246
C       -3.62535731      -3.35033408      -2.02437970
C       -3.41664930      -3.42395518      -3.40794991
C       -2.38630974      -2.64226360      -3.96527723
C       -1.57864246      -1.82954367      -3.16414076
C       -4.24654569      -4.25804682      -4.28951861
N       -4.43416517      -3.87836856      -5.56127145
N       -5.23524704      -4.81831625      -6.10521020
C       -5.59055079      -4.65211647      -7.51568326
C       -6.89763764      -3.91602260      -7.74054060
C       -7.62495770      -4.17187165      -8.91308251
C       -8.82717040      -3.51001334      -9.16529086
C       -9.31957689      -2.58002516      -8.25095380
C       -8.61043917      -2.29788605      -7.08098125
C       -9.12391516      -1.27044958      -6.11448976
C       -7.38984673      -2.94791771      -6.84750716
C       -5.52889800      -5.85842449      -5.24644124
C       -6.28924872      -7.07203121      -5.58918108
C       -7.52399645      -7.01300867      -6.25079368
C       -8.22605956      -8.18005290      -6.57229270
C       -7.71918026      -9.42017655      -6.19541936
Br      -8.68254521     -10.99412322      -6.60191287
C       -6.51115315      -9.50508398      -5.51332607
C       -5.79644893      -8.33659046      -5.22575903
C       -4.91287726      -5.49786678      -4.05361932
Cl      -4.91716656      -6.38865149      -2.59702465
H       -2.98814056      -2.51264206      -0.14462876
H       -4.43366910      -3.89677634      -1.54583526
H       -2.21071618      -2.65864354      -5.03957536
H       -0.79491647      -1.23433231      -3.62528986
H       -5.61647283      -5.65275585      -7.96121071
H       -4.77630327      -4.09704813      -7.99731834
H       -7.25940509      -4.89060758      -9.64408269
H       -9.38102209      -3.71585938     -10.07761425
H      -10.25955100      -2.06878556      -8.46175743
H       -8.67345369      -1.39688583      -5.12559495
H      -10.20859876      -1.36724535      -5.99148328
H       -8.89375878      -0.26485392      -6.47741587
H       -6.82713208      -2.68876777      -5.95104320
H       -7.97583209      -6.06074332      -6.50914874
H       -9.17417515      -8.10486108      -7.10141097
H       -6.11688000     -10.46290480      -5.19723321
H       -4.84540596      -8.43040948      -4.70317499
C       -1.79087052       1.79087052       1.79087052
C       -2.74555635       2.62093975       1.20719215
C       -3.56017443       3.42528067       2.01461598
C       -3.41588657       3.42434249       3.40832534
C       -2.45130624       2.56838200       3.97416233
C       -1.64419150       1.75537033       3.17276506
C       -4.24810409       4.25602580       4.28998124
N       -4.51484542       3.82730310       5.53165666
N       -5.29696048       4.77887376       6.08293924
C       -5.72784991       4.56487042       7.46563018
C       -7.07709604       3.88364658       7.59345822
C       -7.84798114       4.11989484       8.74203588
C       -9.09047612       3.50636239       8.90563609
C       -9.58042225       2.64490306       7.92523055
C       -8.82902387       2.38319031       6.77709228
C       -9.34197634       1.42795052       5.73892765
C       -7.56965200       2.98315829       6.63246131
C       -5.49984749       5.87079068       5.26312556
C       -6.21882313       7.10275766       5.62888022
C       -7.48572709       7.07327326       6.22879845
C       -8.14767458       8.25693134       6.57379924
C       -7.56602259       9.48706182       6.28169176
Br      -8.47392830      11.08547735       6.71917566
C       -6.32357985       9.54462426       5.66135908
C       -5.65073930       8.35732945       5.35072968
C       -4.84388312       5.53643156       4.08404869
Cl      -4.73588844       6.49302778       2.67392648
H       -2.87176636       2.64572604       0.12791897
H       -4.31798706       4.03205700       1.52623663
H       -2.32765691       2.52630226       5.05497592
H       -0.91232606       1.10194002       3.64027257
H       -5.72895213       5.54382191       7.95766535
H       -4.96466593       3.94905507       7.95694873
H       -7.48548211       4.78526814       9.52334512
H       -9.67793731       3.69635520       9.80020321
H      -10.55226446       2.17080204       8.06702749
H       -8.83851710       1.57807597       4.77934140
H      -10.41371988       1.58304995       5.57055757
H       -9.17669561       0.39657844       6.06275453
H       -6.97659468       2.73881455       5.75153381
H       -7.99332605       6.13317099       6.41922710
H       -9.12289534       8.20350927       7.05404260
H       -5.87034385      10.49575252       5.41092164
H       -4.67205119       8.42889064       4.87804859
C        1.79087052      -1.79087052       1.79087052
C        1.57050660      -1.83739453       3.16578712
C        2.37364656      -2.65097430       3.97545022
C        3.41570769      -3.40842127       3.42442543
C        3.61063185      -3.35239312       2.03082560
C        2.80395914      -2.55075878       1.21760897
C        4.28288649      -4.27132675       4.23989788
N        4.81636329      -5.36994668       3.68749522
N        5.53828183      -5.95351384       4.66697782
C        6.25060412      -7.18526678       4.32247962
C        5.47484181      -8.45277879       4.62658024
C        6.18538428      -9.63371940       4.89080819
C        5.51226738     -10.82470008       5.16550715
C        4.11859492     -10.85451636       5.17744457
C        3.38620062      -9.69618584       4.90692001
C        1.88580558      -9.73781922       4.88522971
C        4.07007323      -8.50935450       4.60584388
C        5.55979591      -5.23097404       5.84299378
C        6.34322428      -5.56216143       7.04507531
C        6.33393644      -6.84652651       7.60733585
C        7.09161174      -7.14018659       8.74660683
C        7.83479785      -6.13754228       9.36243604
Br       8.83305034      -6.52657142      10.91895955
C        7.83874511      -4.84874604       8.84207204
C        7.10696649      -4.56972629       7.68210564
C        4.72889448      -4.14571937       5.58974952
Cl       4.34840984      -2.88173890       6.67269395
H        0.77360340      -1.25320519       3.61860279
H        2.14866788      -2.68968534       5.03792748
H        4.39711435      -3.94508504       1.56673569
H        2.97665767      -2.53313078       0.14475020
H        7.20563712      -7.16569004       4.85911223
H        6.47388032      -7.14752727       3.24926216
H        7.27373487      -9.63690934       4.88345116
H        6.07365274     -11.73325218       5.36759080
H        3.60554881     -11.79268823       5.39185695
H        1.46010876      -8.73652745       4.99929825
H        1.50659817     -10.34762278       5.71310645
H        1.53515568     -10.16106324       3.93980965
H        3.48673367      -7.62321517       4.35699421
H        5.72167148      -7.63756030       7.18649237
H        7.07866714      -8.15040253       9.15137753
H        8.39698457      -4.05583435       9.32419909
H        7.13765163      -3.55569840       7.28564039
C       -0.00445707       0.01189536      -1.78238275
H       -0.66409135       0.67374010      -2.43557963
H        0.65740317      -0.63156657      -2.45157240
C       -0.90989263      -0.90692880      -0.91072765
C        0.90977584       0.90977584      -0.90977584
C       -0.00465871       1.77757030       0.00794375
H       -0.66225468       2.44313916      -0.64384735
H        0.64322798       2.43503045       0.67728295
C       -1.78241447       0.00034974      -0.00472694
H       -2.45427497      -0.65498947       0.64260836
H       -2.43311707       0.67328779      -0.65473579
C       -0.91132561       0.90220522       0.91563759
C       -0.01476271      -0.02253852       1.78660255
H       -0.67934791      -0.69751639       2.42135241
H        0.63392994       0.61504881       2.47327442
C        0.01484550      -1.77751727      -0.01636693
H        0.67870853      -2.42144646      -0.68295456
H       -0.62264859      -2.45592969       0.64226336
C        1.78714474       0.01002794       0.00389507
H        2.44202412       0.67113390       0.66197326
H        2.45385902      -0.65136977      -0.64189061
C        0.91606151      -0.90478549       0.90901405
