177
Properties=species:S:1:pos:R:3 pbc="F F F"
C        0.00000000       0.00000000       0.00000000
C        0.88096649       0.88096649      -0.88096649
C        0.84894647       0.72945516      -2.26557454
C        1.65172277       1.54206557      -3.07657067
C        2.50789351       2.49758433      -2.51336448
C        2.51347586       2.63850003      -1.11216261
C        1.70528670       1.83757334      -0.29975478
C        3.36843683       3.36683382      -3.32912840
N        3.68313655       4.58750396      -2.87345260
N        4.45746955       5.14219501      -3.82939685
C        4.96057929       6.49325419      -3.57480497
C        4.08640689       7.59491673      -4.14316516
C        4.67814922       8.82195708      -4.48009349
C        3.91008401       9.86616202      -4.99651650
C        2.53823869       9.70120203      -5.18140306
C        1.92140420       8.49412616      -4.84406403
C        0.43857246       8.33009453      -5.01047544
C        2.69588889       7.45868689      -4.30098375
C        4.72895356       4.29233654      -4.88276155
C        5.62515288       4.58046905      -6.01512701
C        5.53804362       5.77343117      -6.74661194
C        6.40479084       6.02873179      -7.81517047
C        7.34209493       5.07133713      -8.19163204
Br       8.49147416       5.40305810      -9.65433697
C        7.43028875       3.86819930      -7.50136308
C        6.58435722       3.63338196      -6.41134717
C        4.00882157       3.14136443      -4.58446529
Cl       3.93795987       1.71497836      -5.52019240
H        0.19914785      -0.00993420      -2.72648565
H        1.57288726       1.42012953      -4.15355184
H        3.15044063       3.38617245      -0.64260994
H        1.72874124       1.97425845       0.77817311
H        5.97592800       6.54105981      -3.98373952
H        5.03613761       6.61721222      -2.48760783
H        5.74651555       8.97656198      -4.34130577
H        4.37965354      10.81236448      -5.25276562
H        1.94983202      10.52637197      -5.58417793
H        0.15736354       7.27316492      -5.03569393
H        0.10641991       8.77661653      -5.95457889
H       -0.08822558       8.81226228      -4.18227980
H        2.19555142       6.53714905      -4.00453050
H        4.78206725       6.51729286      -6.51665197
H        6.32554739       6.97081964      -8.35436809
H        8.14186844       3.10758453      -7.79785296
H        6.68264976       2.68899440      -5.87763419
C       -0.88096649      -0.88096649      -0.88096649
C       -2.13753954      -0.42859809      -1.27783854
C       -2.94500430      -1.23291049      -2.09244422
C       -2.51547843      -2.50255168      -2.50081222
C       -1.23700578      -2.93185692      -2.09527579
C       -0.42314984      -2.12752747      -1.29193751
C       -3.33398392      -3.37824335      -3.35217178
N       -2.72517784      -4.23908745      -4.17982783
N       -3.71882809      -4.88238015      -4.82785318
C       -3.32504557      -5.90636875      -5.79722413
C       -3.20745196      -5.39617478      -7.22086204
C       -3.40482910      -6.29529732      -8.28007337
C       -3.29643756      -5.87131096      -9.60501401
C       -2.98617279      -4.54284275      -9.89182824
C       -2.77366843      -3.62910380      -8.85682216
C       -2.40485707      -2.20740394      -9.16688143
C       -2.85850974      -4.06915674      -7.52789305
C       -4.98107278      -4.52334858      -4.39963030
C       -6.24787859      -5.12738946      -4.84548090
C       -6.54803144      -5.30680608      -6.20324921
C       -7.75579809      -5.88921838      -6.60367662
C       -8.69733664      -6.25964345      -5.64808401
Br     -10.34129979      -7.01728559      -6.19028384
C       -8.43685861      -6.06642975      -4.29656276
C       -7.21248774      -5.51590469      -3.90069392
C       -4.74934495      -3.52879919      -3.45650714
Cl      -5.93065134      -2.67947612      -2.56300317
H       -2.49697948       0.54922854      -0.96794836
H       -3.90311568      -0.83165383      -2.41179911
H       -0.86285838      -3.90371295      -2.41265169
H        0.56061987      -2.48546577      -0.99998068
H       -4.05861400      -6.71700012      -5.72511321
H       -2.35609676      -6.30818707      -5.47667383
H       -3.64414650      -7.33837484      -8.08186195
H       -3.45048462      -6.57735868     -10.41694035
H       -2.90279904      -4.22565908     -10.93192380
H       -2.60100316      -1.55212060      -8.31309863
H       -2.99884717      -1.83122847     -10.00753969
H       -1.34338612      -2.14142063      -9.42150975
H       -2.65063955      -3.35577165      -6.73081978
H       -5.86150876      -4.97783519      -6.97666812
H       -7.95475901      -6.03181690      -7.66415922
H       -9.17008525      -6.33206046      -3.54516023
H       -7.02619523      -5.38788691      -2.83519621
C       -0.88096649       0.88096649       0.88096649
C       -1.18889947       2.17825712       0.47681959
C       -2.00331739       2.98626307       1.28077854
C       -2.50016163       2.51535043       2.50333026
C       -2.18346620       1.19692607       2.88374622
C       -1.38060816       0.38314893       2.07885773
C       -3.35448626       3.33271162       3.37720117
N       -4.25673519       2.72612296       4.16123497
N       -4.88698658       3.71907478       4.82300005
C       -5.92837862       3.32622430       5.77403552
C       -7.32686379       3.31084909       5.18677589
C       -8.42121494       3.51868162       6.04030323
C       -9.72540858       3.50284193       5.54451203
C       -9.95622043       3.27608367       4.18853968
C       -8.88599503       3.05519875       3.31840061
C       -9.13797737       2.77602065       1.86514441
C       -7.57987572       3.04652463       3.82915918
C       -4.37676220       4.97322241       4.55406704
C       -4.78944392       6.22978007       5.20152494
C       -6.13789249       6.59253988       5.32765435
C       -6.50711212       7.78888910       5.95269187
C       -5.52616737       8.65805568       6.42084105
Br      -6.02402075      10.28810596       7.23674252
C       -4.18120073       8.33589607       6.28275434
C       -3.81907210       7.12161467       5.68839958
C       -3.39482879       4.74217023       3.59765227
Cl      -2.39850357       5.91560399       2.85902307
H       -0.80940421       2.56974042      -0.46344532
H       -2.25180378       3.97917114       0.91559370
H       -2.57085355       0.79147772       3.81689174
H       -1.15843258      -0.63168851       2.39808250
H       -5.86257091       4.01285545       6.62530096
H       -5.67927947       2.32241591       6.13926228
H       -8.26711950       3.69388498       7.10337881
H      -10.56503071       3.66404251       6.21571044
H      -10.98077829       3.26456625       3.81503737
H       -8.24157092       2.95925351       1.26539796
H       -9.92615025       3.43236687       1.47909820
H       -9.44220074       1.73437595       1.72973981
H       -6.75740297       2.83281230       3.14701570
H       -6.92644433       5.96586560       4.92370214
H       -7.56224550       8.03672039       6.05176924
H       -3.40885493       9.01353436       6.62491664
H       -2.75907375       6.88541039       5.60479421
C        0.88096649      -0.88096649       0.88096649
C        0.40775970      -2.11533811       1.32087837
C        1.21766536      -2.92876198       2.12393167
C        2.49712598      -2.50969784       2.51201850
C        2.95617437      -1.26291383       2.04505029
C        2.15565581      -0.45311805       1.23384097
C        3.37615179      -3.33175556       3.35649170
N        4.70480689      -3.22135992       3.21792631
N        5.23452402      -4.09400563       4.10053176
C        6.69522438      -4.16550012       4.16791394
C        7.30231403      -5.23827147       3.28390328
C        8.53835040      -5.79459993       3.64724946
C        9.13795569      -6.77675300       2.85805385
C        8.51294340      -7.21595709       1.69194329
C        7.28751375      -6.67137439       1.30070625
C        6.63289043      -7.11981393       0.02643807
C        6.70422071      -5.66593282       2.08540600
C        4.29113768      -4.73367300       4.87924097
C        4.57246603      -5.65665770       5.99162521
C        5.47212631      -6.72416525       5.86179516
C        5.72892404      -7.58501893       6.93475012
C        5.05350266      -7.41230238       8.13925906
Br       5.37706628      -8.59379399       9.57800896
C        4.13518040      -6.37928655       8.28538417
C        3.90877590      -5.50023692       7.22007353
C        3.07584167      -4.26675954       4.39205008
Cl       1.52203534      -4.69750254       4.95359275
H       -0.58418171      -2.45974003       1.04014099
H        0.82892986      -3.90021354       2.41742522
H        3.95373744      -0.91615497       2.30933061
H        2.54083014       0.50163414       0.88563058
H        6.96184179      -4.31947073       5.21941479
H        7.08718225      -3.18604589       3.86772952
H        9.04793872      -5.46553268       4.55091189
H       10.09608517      -7.19937044       3.14932804
H        8.99383132      -7.98285667       1.08369393
H        5.56607741      -6.87751224       0.02263274
H        6.71902796      -8.20635684      -0.08776947
H        7.10519566      -6.63184088      -0.83072004
H        5.76854874      -5.22123600       1.74744623
H        5.97359422      -6.92240022       4.92001764
H        6.44510581      -8.39508108       6.81054824
H        3.58882382      -6.24741395       9.21106816
H        3.19516551      -4.69004828       7.36406456
