177
Properties=species:S:1:pos:R:3 pbc="F F F"
C        0.00000000       0.00000000       0.00000000
C        0.88026675       0.88026675      -0.88026675
C        2.26485930       0.74197016      -0.83706760
C        3.06994632       1.55822899      -1.63871046
C        2.49965086       2.50056005      -2.50600011
C        1.10442004       2.60119225      -2.55860696
C        0.29619509       1.81257125      -1.73478074
C        3.34381063       3.32079387      -3.38030976
N        3.30618135       4.70049543      -3.47629318
C        2.62334769       5.64242361      -2.58378324
C        1.41381316       6.31747090      -3.19066840
C        1.55723670       7.30669648      -4.17289992
C        0.44181430       7.98941971      -4.66867755
C       -0.84423702       7.69189706      -4.20353098
C       -2.03044501       8.45092234      -4.72170247
C       -0.99449169       6.69942133      -3.23209686
C        0.12256823       6.02887355      -2.72293804
N        4.21152583       5.20036774      -4.34877640
C        4.86849767       4.13271642      -4.83537691
C        5.96295958       4.31887972      -5.80298314
C        6.71548903       5.50481357      -5.78818837
C        7.77662277       5.70102385      -6.67906094
C        8.09735236       4.70419645      -7.59734353
Br       9.53709640       4.95588348      -8.79463833
C        7.35696230       3.52809568      -7.64222698
C        6.28695415       3.34273776      -6.75869435
C        4.37074021       2.94043061      -4.23232247
Cl       4.94555528       1.35052759      -4.46869119
H        2.72972157      -0.00114503      -0.18992224
H        4.15065793       1.43456509      -1.58463345
H        0.62748376       3.28187329      -3.26268576
H       -0.78331670       1.91858388      -1.78267989
H        3.36038896       6.40218683      -2.29568449
H        2.35994826       5.11096863      -1.66226769
H        2.54463453       7.56781189      -4.54807503
H        0.58413172       8.76947513      -5.41763555
H       -2.96792397       8.06271579      -4.30770078
H       -2.08927696       8.37115728      -5.81083299
H       -1.95315487       9.50739600      -4.44117159
H       -1.98155466       6.45113026      -2.84922987
H       -0.03110623       5.28840782      -1.93875369
H        6.47849862       6.29186774      -5.07351028
H        8.34075817       6.62854490      -6.64531494
H        7.59557330       2.74912591      -8.36205097
H        5.70938326       2.42796209      -6.84888157
C       -0.88026675      -0.88026675      -0.88026675
C       -1.85712934      -1.68556778      -0.30119994
C       -2.65629437      -2.49953451      -1.11105689
C       -2.50341437      -2.49816813      -2.50462852
C       -1.53774111      -1.65685080      -3.06962735
C       -0.71300392      -0.86738711      -2.26315604
C       -3.37484081      -3.31573488      -3.35433857
N       -2.95128592      -4.21484286      -4.31684117
C       -1.59368619      -4.72654451      -4.52932383
C       -0.92043188      -4.21741196      -5.78410862
C       -1.31964970      -4.66732671      -7.04985669
C       -0.63784212      -4.26073686      -8.20133258
C        0.45135925      -3.38593873      -8.11661155
C        1.19321200      -2.97939155      -9.35600024
C        0.84731043      -2.92580757      -6.85852937
C        0.17698861      -3.34632623      -5.70504221
N       -3.97047087      -4.85042011      -4.93977898
C       -5.09205251      -4.37015154      -4.37438694
C       -6.40743257      -4.87801945      -4.79937043
C       -6.52440422      -6.18584248      -5.29824427
C       -7.76423080      -6.70484907      -5.68762769
C       -8.90592153      -5.91468306      -5.57828775
Br     -10.58562390      -6.61261626      -6.08937806
C       -8.81335090      -4.61143181      -5.10250224
C       -7.56847101      -4.09181333      -4.72810191
C       -4.75790626      -3.42661649      -3.35897054
Cl      -5.83610057      -2.61543557      -2.31323792
H       -2.01172604      -1.68409583       0.77732309
H       -3.41095361      -3.12398377      -0.63491908
H       -1.43201440      -1.58842959      -4.15159881
H        0.03890906      -0.23354177      -2.72331436
H       -1.66668627      -5.82033850      -4.57123551
H       -0.99801151      -4.49650528      -3.63866779
H       -2.15659529      -5.35559815      -7.14832802
H       -0.95649224      -4.64274040      -9.17200977
H        1.97818571      -2.24802115      -9.13265716
H        0.50994440      -2.52418717     -10.07847054
H        1.67079941      -3.85358010      -9.81263204
H        1.69321611      -2.24918734      -6.76283423
H        0.53922921      -2.99617522      -4.73910926
H       -5.64085219      -6.81668154      -5.38634291
H       -7.82460917      -7.71943890      -6.07056994
H       -9.69863082      -3.98551535      -5.02260400
H       -7.53069570      -3.05866724      -4.39686398
C       -0.88026675       0.88026675       0.88026675
C       -0.31342585       1.60642707       1.92404413
C       -1.12561946       2.40526814       2.73599817
C       -2.50366297       2.50441832       2.49812972
C       -3.04874109       1.79205157       1.42342659
C       -2.24803623       0.96526053       0.63025031
C       -3.34439865       3.38007793       3.32043768
N       -4.50388134       3.00409576       3.97499286
C       -5.00542645       1.64464034       4.19948775
C       -6.23644867       1.28932745       3.39617633
C       -7.48741844       1.83490499       3.71450967
C       -8.63747387       1.43751005       3.02492764
C       -8.56327723       0.49458553       1.99332827
C       -9.80786113       0.05440879       1.27990988
C       -7.31745674      -0.04491793       1.66448770
C       -6.16964596       0.33885646       2.36587741
N       -5.06953189       4.01050450       4.68063358
C       -4.26581040       5.07298847       4.49779212
C       -4.57174639       6.35147382       5.16160224
C       -5.27174301       6.35739030       6.37935767
C       -5.55638680       7.55439675       7.04592401
C       -5.13811056       8.76403498       6.49674680
Br      -5.50682628      10.38358645       7.39720549
C       -4.45771480       8.78526547       5.28430469
C       -4.18829330       7.58609874       4.61399422
C       -3.16081102       4.70934129       3.67334097
Cl      -1.83765235       5.69399281       3.23312890
H        0.75897961       1.56535490       2.11212348
H       -0.66013038       2.96078616       3.54893992
H       -4.10473843       1.89176592       1.17553846
H       -2.69590225       0.41098563      -0.18894081
H       -5.22957969       1.55874950       5.26993110
H       -4.18783877       0.94161545       4.00373036
H       -7.57974296       2.56296589       4.51781260
H       -9.60150998       1.86250258       3.30722985
H       -9.57862587      -0.63882045       0.46268718
H      -10.32695651       0.91568944       0.85006736
H      -10.47904945      -0.46026852       1.97663180
H       -7.23124873      -0.78295015       0.87050689
H       -5.22243298      -0.13247255       2.10609485
H       -5.60226627       5.41896795       6.82264242
H       -6.10003138       7.52872932       7.98585731
H       -4.13578194       9.72608584       4.84488240
H       -3.68824045       7.64572421       3.65226226
C        0.88026675      -0.88026675       0.88026675
C        0.78239587      -0.79513811       2.26636308
C        1.59874067      -1.59709938       3.07104572
C        2.50038483      -2.50602087       2.49980531
C        2.56006139      -2.59977783       1.10438003
C        1.77185394      -1.77651777       0.29517537
C        3.31980861      -3.37963090       3.34547476
N        4.69473614      -3.51556659       3.27266722
C        5.64116411      -2.66913813       2.53925229
C        6.26482335      -3.32787272       1.32925638
C        7.23033738      -4.33335596       1.47313975
C        7.86738009      -4.87869972       0.35383176
C        7.54652699      -4.44085250      -0.93618845
C        8.25719642      -5.01267461      -2.12769124
C        6.57727552      -3.44625415      -1.08650316
C        5.95281286      -2.88783869       0.03372827
N        5.19582682      -4.37661603       4.18822711
C        4.13419868      -4.81460824       4.88778407
C        4.32455460      -5.75664306       6.00362479
C        5.53124093      -5.75469350       6.72255655
C        5.73280307      -6.62125424       7.80265026
C        4.72057654      -7.50183595       8.17647984
Br       4.97985067      -8.66574275       9.64202480
C        3.52323177      -7.53379505       7.47025814
C        3.33206101      -6.67511915       6.38120609
C        2.94534679      -4.19200713       4.40613937
Cl       1.36642849      -4.36746039       5.03088518
H        0.07078247      -0.11471771       2.73299859
H        1.50720189      -1.50986684       4.15278774
H        3.20738316      -3.33565475       0.62900489
H        1.84595888      -1.85704542      -0.78505724
H        6.42908495      -2.38247844       3.24669689
H        5.12800538      -1.74055847       2.26462073
H        7.50884390      -4.68848104       2.46319652
H        8.63026665      -5.64520969       0.49576606
H        7.85417547      -4.61378936      -3.06547223
H        8.14589667      -6.10032116      -2.15350452
H        9.32274338      -4.76009526      -2.08742590
H        6.31180425      -3.08379640      -2.07679518
H        5.23013240      -2.08756077      -0.12163790
H        6.33062797      -5.06932795       6.44392072
H        6.67647400      -6.59824289       8.33990112
H        2.73182721      -8.22448643       7.75043653
H        2.39919459      -6.75525732       5.83177501
