185
Properties=species:S:1:pos:R:3 pbc="F F F"
C        0.00000000       0.00000000       0.00000000
C        0.88026675       0.88026675      -0.88026675
C        2.26485930       0.74197016      -0.83706760
C        3.06994632       1.55822899      -1.63871046
C        2.49965086       2.50056005      -2.50600011
C        1.10442004       2.60119225      -2.55860696
C        0.29619509       1.81257125      -1.73478074
C        3.34381063       3.32079387      -3.38030976
N        3.30618135       4.70049543      -3.47629318
C        2.62334769       5.64242361      -2.58378324
C        1.41381316       6.31747090      -3.19066840
C        1.55723670       7.30669648      -4.17289992
C        0.44181430       7.98941971      -4.66867755
C       -0.84423702       7.69189706      -4.20353098
C       -2.03044501       8.45092234      -4.72170247
C       -0.99449169       6.69942133      -3.23209686
C        0.12256823       6.02887355      -2.72293804
N        4.21152583       5.20036774      -4.34877640
C        4.86849767       4.13271642      -4.83537691
C        5.96295958       4.31887972      -5.80298314
C        6.71548903       5.50481357      -5.78818837
C        7.77662277       5.70102385      -6.67906094
C        8.09735236       4.70419645      -7.59734353
C        7.35696230       3.52809568      -7.64222698
C        6.28695415       3.34273776      -6.75869435
C        4.37074021       2.94043061      -4.23232247
Cl       4.94555528       1.35052759      -4.46869119
H        2.72972157      -0.00114503      -0.18992224
H        4.15065793       1.43456509      -1.58463345
H        0.62748376       3.28187329      -3.26268576
H       -0.78331670       1.91858388      -1.78267989
H        3.36038896       6.40218683      -2.29568449
H        2.35994826       5.11096863      -1.66226769
H        2.54463453       7.56781189      -4.54807503
H        0.58413172       8.76947513      -5.41763555
H       -2.96792397       8.06271579      -4.30770078
H       -2.08927696       8.37115728      -5.81083299
H       -1.95315487       9.50739600      -4.44117159
H       -1.98155466       6.45113026      -2.84922987
H       -0.03110623       5.28840782      -1.93875369
H        6.47849862       6.29186774      -5.07351028
H        8.34075817       6.62854490      -6.64531494
H        7.59557330       2.74912591      -8.36205097
H        5.70938326       2.42796209      -6.84888157
C        9.19466519       4.89602180      -8.50987166
C       10.11366468       5.05667554      -9.27411398
Br      11.59960913       5.31643904     -10.50982916
C       -0.88026675      -0.88026675      -0.88026675
C       -1.25622931      -2.14667186      -0.44099589
C       -2.05569047      -2.95561934      -1.25557596
C       -2.50539710      -2.49853921      -2.50227472
C       -2.14336829      -1.20963750      -2.91121347
C       -1.31632706      -0.41024232      -2.11697770
C       -3.38291760      -3.32953331      -3.33246336
N       -3.16549861      -3.65895551      -4.65851583
C       -1.93700508      -3.47492987      -5.43761960
C       -2.02199768      -2.40100217      -6.49895261
C       -2.76848895      -2.60021110      -7.66813305
C       -2.77413441      -1.64039524      -8.68538192
C       -2.04370013      -0.45383601      -8.55365489
C       -2.03412508       0.55573166      -9.66378637
C       -1.30610475      -0.24500454      -7.38591722
C       -1.28577555      -1.21263072      -6.37597356
N       -4.12729629      -4.45813994      -5.17523373
C       -4.99574811      -4.67015506      -4.17068783
C       -6.16684476      -5.53825882      -4.37971888
C       -6.10808171      -6.57684548      -5.32356378
C       -7.19590158      -7.43306881      -5.52773717
C       -8.35920393      -7.25735569      -4.78233272
C       -8.44739974      -6.22640400      -3.85348122
C       -7.36163655      -5.36332770      -3.66342201
C       -4.54882461      -4.00109784      -2.99357083
Cl      -5.27248311      -4.04420840      -1.44808256
H       -0.94025100      -2.51336920       0.53512142
H       -2.33346785      -3.94407139      -0.89231722
H       -2.52268236      -0.80196161      -3.84739884
H       -1.03689962       0.58068734      -2.46173478
H       -1.70981004      -4.43879465      -5.90965558
H       -1.11537666      -3.27821832      -4.73958960
H       -3.33915745      -3.51646719      -7.80489681
H       -3.34700065      -1.83032904      -9.59391272
H       -1.46839526       1.45241208      -9.38650942
H       -3.05408476       0.86730321      -9.90593175
H       -1.56596364       0.12804868     -10.55749777
H       -0.72557336       0.66570270      -7.25893481
H       -0.66825763      -1.03070029      -5.49709736
H       -5.20381742      -6.72855520      -5.91150403
H       -7.12237199      -8.22726644      -6.26497957
H       -9.35519351      -6.07736168      -3.27419498
H       -7.48149211      -4.54797705      -2.95675776
C       -9.47833560      -8.14155425      -4.98066880
C      -10.41560838      -8.88207055      -5.14677526
Br     -11.93109919     -10.07942277      -5.41535537
C       -0.88026675       0.88026675       0.88026675
C       -0.42168901       2.12776573       1.29444232
C       -1.22796174       2.92857829       2.11034574
C       -2.50562304       2.50181803       2.49876994
C       -2.96107617       1.25846523       2.04467785
C       -2.14646110       0.43911375       1.25797222
C       -3.36742756       3.36377178       3.31371493
N       -3.98590757       3.00030820       4.49675418
C       -3.73362292       1.80630208       5.30962953
C       -4.84890969       0.78520825       5.28783452
C       -6.05662903       1.02215616       5.95804790
C       -7.05135306       0.04028299       6.00827551
C       -6.86787605      -1.19695208       5.38026706
C       -7.93019865      -2.25333627       5.46531741
C       -5.67030803      -1.43499472       4.70171320
C       -4.66790838      -0.45998112       4.66645257
N       -4.70830434       4.00090235       5.05146327
C       -4.56001128       5.05139754       4.22518218
C       -5.19746310       6.33902959       4.54832976
C       -5.43434191       6.68532424       5.88882482
C       -6.01645092       7.91163860       6.22861804
C       -6.36694574       8.80907780       5.22286880
C       -6.15723962       8.48234460       3.88770075
C       -5.58811048       7.24806650       3.55220927
C       -3.70544854       4.69819950       3.13984524
Cl      -3.15907788       5.71968957       1.88600661
H        0.55727591       2.49167456       0.98410012
H       -0.84602210       3.89873720       2.42509716
H       -3.97002254       0.92204008       2.27998018
H       -2.51591032      -0.52763630       0.92967305
H       -3.57071469       2.14840183       6.33914377
H       -2.78525126       1.36444508       4.98348824
H       -6.22589282       1.97023769       6.46439094
H       -7.97326624       0.24332140       6.55465477
H       -7.66504778      -3.13814232       4.87558714
H       -8.88085093      -1.87110701       5.08296939
H       -8.06182713      -2.57191810       6.50550370
H       -5.49900322      -2.38910440       4.20890665
H       -3.73281064      -0.69696613       4.16021077
H       -5.16247228       5.99507067       6.68633369
H       -6.18854798       8.15242130       7.27364873
H       -6.43630644       9.17383899       3.09660474
H       -5.47444102       7.01340219       2.49838371
C       -6.95697312      10.07683755       5.56674798
C       -7.45112106      11.13858635       5.85474678
Br      -8.25011648      12.85534435       6.32041650
C        0.88026675      -0.88026675       0.88026675
C        1.45988519      -0.35302785       2.03098402
C        2.27514119      -1.16078543       2.83095916
C        2.49844754      -2.50527654       2.50248694
C        1.88000220      -3.02497301       1.35924405
C        1.09254933      -2.21363726       0.53736048
C        3.31385254      -3.36229563       3.36876610
N        4.39154265      -4.12893282       2.96249449
C        5.09841263      -4.07206690       1.67907500
C        4.86986663      -5.26883120       0.78325463
C        5.44632995      -6.51145428       1.07904886
C        5.30424898      -7.59251278       0.20314981
C        4.57315748      -7.46106963      -0.98303608
C        4.45173954      -8.61951103      -1.92907078
C        3.98738404      -6.22775330      -1.27811084
C        4.14430016      -5.14124950      -0.41116983
N        4.97617200      -4.80856651       3.97593145
C        4.27839778      -4.48054338       5.07764983
C        4.67073592      -5.02595490       6.38813163
C        6.01189649      -5.36511046       6.63148402
C        6.41958849      -5.86306136       7.87405770
C        5.48240813      -6.02494892       8.89153529
C        4.14600688      -5.71144432       8.66983375
C        3.74056634      -5.22752347       7.42029644
C        3.24630479      -3.55618714       4.74100135
Cl       2.15883504      -2.79300579       5.81293322
H        1.27993910       0.68184784       2.32040751
H        2.72096163      -0.72494140       3.72395343
H        1.98565100      -4.07936660       1.10702521
H        0.63481018      -2.63541512      -0.35227823
H        6.16803201      -3.98395101       1.90627727
H        4.81794250      -3.14028655       1.17495554
H        6.02877923      -6.64312940       1.98861282
H        5.78099095      -8.54256393       0.44768753
H        3.80199169      -8.37852522      -2.77802430
H        4.02416336      -9.48691161      -1.41836166
H        5.43745695      -8.88522742      -2.32727165
H        3.41791739      -6.09599154      -2.19510346
H        3.70507532      -4.18536058      -0.69438062
H        6.75665072      -5.24076618       5.84645974
H        7.46332696      -6.11770594       8.03358510
H        3.40706643      -5.84345592       9.45622782
H        2.68334454      -5.02929134       7.27359104
C        5.89763647      -6.52733219      10.17558999
C        6.24539021      -6.94807818      11.25098580
Br       6.80767860      -7.62838885      12.98980987
