198
Properties=species:S:1:pos:R:3 pbc="F F F"
C        1.79282255       1.79282255      -1.79282255
C        1.50197323       3.14628141      -1.92386138
C        2.32340028       3.95046948      -2.71172882
C        3.44364690       3.40287869      -3.34545852
C        3.74479511       2.03880704      -3.21906354
C        2.89055545       1.23287229      -2.44916734
C        4.91802177       1.46172566      -3.89526078
C        5.30365959       1.56693591      -5.22584493
Cl       4.55429242       2.48729896      -6.45071742
C        6.39194001       0.67284639      -5.40566304
N        6.62275594      -0.00373965      -4.27599919
N        5.83656439       0.57291920      -3.33258695
C        6.04903913       0.20732810      -1.96981794
C        6.62956389      -1.03691984      -1.68740491
C        6.82935154      -1.43790648      -0.36649672
C        6.48541439      -0.59425919       0.69789378
C        6.70669619      -1.07064129       2.10844575
C        5.92609323       0.67003238       0.42319066
C        5.57972955       1.62923154       1.52996640
C        5.72324156       1.06371375      -0.91244800
C        7.19659070       0.38736917      -6.59569670
C        7.60005385      -0.93272317      -6.86307183
C        8.40123771      -1.22820876      -7.96884494
C        8.81359216      -0.20543841      -8.82048390
C        8.42620694       1.10611742      -8.55579353
Br       9.00245223       2.49768081      -9.70190401
C        7.62795844       1.40926271      -7.45050457
H        0.64187289       3.58284175      -1.42240416
H        2.09515352       5.00799835      -2.83081889
H        4.07300668       4.05700240      -3.94222628
H        3.08573708       0.16673104      -2.34423384
H        6.90726715      -1.72119101      -2.48827049
H        7.25877493      -2.41912769      -0.17677726
H        7.27702595      -2.00506891       2.13067580
H        5.74471123      -1.25267430       2.59842407
H        7.27511100      -0.33141986       2.68043475
H        5.02647726       2.49503904       1.15223143
H        6.49328882       1.99545671       2.00821070
H        4.94572689       1.14220449       2.27802078
H        5.34346748       2.06439314      -1.10305339
H        7.29665693      -1.74014804      -6.19909160
H        8.70774195      -2.25404740      -8.15768585
H        9.44072665      -0.43945722      -9.67614049
H        7.36702637       2.44473346      -7.25022059
C       -1.79282255      -1.79282255      -1.79282255
C       -1.68754146      -1.70780705      -3.17676750
C       -2.47854661      -2.53109426      -3.97595771
C       -3.35330531      -3.45064190      -3.38803691
C       -3.46624223      -3.54337851      -1.99304495
C       -2.68777355      -2.68526328      -1.19955824
C       -4.39507991      -4.50411420      -1.37581410
C       -5.74292823      -4.71441100      -1.63910120
Cl      -6.69280474      -3.96087937      -2.83862469
C       -6.21671119      -5.60967934      -0.64405891
N       -5.24300754      -5.88241972       0.23041177
N       -4.11521070      -5.33673342      -0.29012642
C       -2.86784984      -5.67362927       0.31529393
C       -2.85663649      -6.08016811       1.65675564
C       -1.65303226      -6.39320819       2.28829867
C       -0.44118821      -6.33930877       1.58723556
C        0.83618011      -6.67361282       2.30982356
C       -0.44550667      -5.95777468       0.23034639
C        0.82408737      -5.92590229      -0.57717977
C       -1.66402312      -5.63853560      -0.39684459
C       -7.54834985      -6.18614876      -0.44515796
C       -8.05649855      -6.33164006       0.85773610
C       -9.30660925      -6.91473433       1.07946970
C      -10.06411514      -7.36451862      -0.00000389
C       -9.56234913      -7.23300009      -1.29276866
Br     -10.58311064      -7.86156695      -2.75735945
C       -8.31212659      -6.65393777      -1.52166136
H       -0.99914022      -1.00644312      -3.64153545
H       -2.41244994      -2.46139539      -5.06012543
H       -3.94739635      -4.08847252      -4.03636649
H       -2.76358472      -2.71931103      -0.11380620
H       -3.77831227      -6.13126607       2.23523171
H       -1.67187790      -6.68151830       3.33697169
H        0.63746852      -7.08405227       3.30530252
H        1.44441306      -5.77176631       2.43374038
H        1.40588747      -7.42672252       1.75757866
H        0.66314317      -5.47210893      -1.56031911
H        1.19531768      -6.94351937      -0.73233313
H        1.58982675      -5.33122701      -0.06851034
H       -1.65133176      -5.40175203      -1.45783021
H       -7.47019670      -5.99704183       1.71163804
H       -9.68185534      -7.02354012       2.09401507
H      -11.03335337      -7.82186891       0.17781236
H       -7.93168555      -6.59279631      -2.53749856
C       -1.79282255       1.79282255       1.79282255
C       -1.95922772       1.47629042       3.13659787
C       -2.74673773       2.29735663       3.94150422
C       -3.34462184       3.44238647       3.40497580
C       -3.18241087       3.76953785       2.05071697
C       -2.41352068       2.91609967       1.24297473
C       -3.82098384       4.96906611       1.48495825
C       -5.14507074       5.38107525       1.57029443
Cl      -6.40514840       4.63905807       2.44810234
C       -5.28243448       6.49167194       0.69634302
N       -4.13377037       6.71227411       0.04897101
N       -3.21990293       5.89383389       0.62833372
C       -1.84535419       6.08447907       0.29635192
C       -1.52387411       6.68496862      -0.92879376
C       -0.19067012       6.86458703      -1.29731537
C        0.84770790       6.47993083      -0.43896151
C        2.27260010       6.68069090      -0.88048165
C        0.53394958       5.90004417       0.80684037
C        1.61214316       5.50959995       1.78153790
C       -0.81388501       5.71783633       1.16768197
C       -6.44871670       7.32773256       0.40320732
C       -6.67888080       7.76473668      -0.91321496
C       -7.76079800       8.59572169      -1.21464581
C       -8.62543655       9.00465484      -0.20145373
C       -8.39743102       8.58396004       1.10672682
Br      -9.56091246       9.15527060       2.48585398
C       -7.31610126       7.75575737       1.41586709
H       -1.48564764       0.59649850       3.56497265
H       -2.89347471       2.04940420       4.99109185
H       -3.94194007       4.07051722       4.05977807
H       -2.28144745       3.13149057       0.18376393
H       -2.30369657       6.99434865      -1.62369859
H        0.02927218       7.31048127      -2.26478459
H        2.32710043       7.27005855      -1.80167689
H        2.74592746       5.71240357      -1.07286324
H        2.84037298       7.22082790      -0.11719853
H        1.20414619       4.94644258       2.62698848
H        2.10158660       6.40464618       2.17747525
H        2.35696683       4.87001966       1.29685777
H       -1.03408265       5.32117593       2.15565542
H       -6.00416568       7.46421103      -1.71277622
H       -7.92087975       8.92788422      -2.23738357
H       -9.46236530       9.65496009      -0.43991547
H       -7.14382531       7.46869479       2.44946031
C        1.79282255      -1.79282255       1.79282255
C        2.92587803      -2.39231356       1.25392442
C        3.73904637      -3.17746396       2.06908825
C        3.42842489      -3.34045061       3.42310862
C        2.28762592      -2.73966767       3.97537211
C        1.45874659      -1.97811479       3.13573369
C        1.95613096      -2.92082470       5.39805255
C        1.86615491      -4.09493607       6.13534945
Cl       2.20885594      -5.67908941       5.60436346
C        1.32930791      -3.74010152       7.40104002
N        1.03248023      -2.43684755       7.42568771
N        1.54249391      -1.91987546       6.27970117
C        1.58102038      -0.49987899       6.14528581
C        0.67172567       0.27267157       6.88099487
C        0.66408032       1.66182339       6.75568485
C        1.58320936       2.31067620       5.92072826
C        1.53290542       3.81057750       5.80528123
C        2.51925357       1.54401100       5.19769240
C        3.55419653       2.19634899       4.32114714
C        2.51583975       0.14275904       5.32632261
C        1.03770960      -4.56947888       8.57246809
C       -0.12143302      -4.32277042       9.32906511
C       -0.40405281      -5.07198165      10.47394505
C        0.47219278      -6.07623673      10.88020814
C        1.62771837      -6.31915046      10.14124905
Br       2.82743531      -7.67037765      10.70422408
C        1.91820318      -5.57204521       8.99747734
H        3.18269300      -2.25831167       0.20611412
H        4.62023770      -3.66154942       1.65218364
H        4.08814420      -3.94720639       4.03688476
H        0.55629201      -1.51206861       3.52834133
H       -0.05985627      -0.19614804       7.53805486
H       -0.06918135       2.23405603       7.31966188
H        0.84743977       4.24595322       6.53979468
H        1.18408984       4.09882847       4.80835150
H        2.52031011       4.24472250       5.98766879
H        4.10002739       1.45702530       3.72628279
H        4.28023416       2.73628626       4.93658692
H        3.08220823       2.89110206       3.61880443
H        3.28199554      -0.42484721       4.80407126
H       -0.80836031      -3.53261208       9.03134872
H       -1.30262088      -4.86436435      11.04963693
H        0.25071574      -6.65270757      11.77398661
H        2.84216113      -5.76157964       8.45823965
C       -0.00445707       0.01189536      -1.78238275
H       -0.66409135       0.67374010      -2.43557963
H        0.65740317      -0.63156657      -2.45157240
C       -0.90989263      -0.90692880      -0.91072765
C        0.90977584       0.90977584      -0.90977584
C       -0.00465871       1.77757030       0.00794375
H       -0.66225468       2.44313916      -0.64384735
H        0.64322798       2.43503045       0.67728295
C       -1.78241447       0.00034974      -0.00472694
H       -2.45427497      -0.65498947       0.64260836
H       -2.43311707       0.67328779      -0.65473579
C       -0.91132561       0.90220522       0.91563759
C       -0.01476271      -0.02253852       1.78660255
H       -0.67934791      -0.69751639       2.42135241
H        0.63392994       0.61504881       2.47327442
C        0.01484550      -1.77751727      -0.01636693
H        0.67870853      -2.42144646      -0.68295456
H       -0.62264859      -2.45592969       0.64226336
C        1.78714474       0.01002794       0.00389507
H        2.44202412       0.67113390       0.66197326
H        2.45385902      -0.65136977      -0.64189061
C        0.91606151      -0.90478549       0.90901405
