177
Properties=species:S:1:pos:R:3 pbc="F F F"
C        0.00000000       0.00000000       0.00000000
C        0.42227417       3.42078738      -6.61438234
C        1.07191791       4.78755000      -6.43480271
C        2.39292137       4.89699310      -7.17157199
C        2.31503605       5.25382075      -8.53434590
C        3.46016548       5.41773821      -9.31043230
C        4.71015002       5.20481574      -8.74620269
C        4.81808302       4.84250187      -7.40203910
C        3.67454427       4.70610490      -6.59289625
N        3.83965978       4.35804000      -5.21092112
N        2.92199738       3.54794056      -4.63604684
C        3.31778809       3.34861823      -3.37726445
C        2.50089509       2.50686504      -2.49804178
C        1.88705239       1.35500178      -3.01989375
C        1.08210193       0.54327708      -2.21641772
C        0.88159860       0.88159860      -0.88159860
C        1.47254673       2.02498509      -0.34749431
C        2.27487315       2.83881062      -1.15549754
C        4.53148390       4.03562832      -3.13442944
Cl       5.39226802       4.06955609      -1.66132130
C        4.87071743       4.67879343      -4.31920864
C        6.00147081       5.58540963      -4.57186916
C        7.30784322       5.18509155      -4.24741049
C        8.39621254       6.03382589      -4.47205568
C        8.18576550       7.28828873      -5.03950947
Br       9.65808982       8.42590316      -5.36907801
C        6.89831181       7.70478540      -5.36463815
C        5.80923061       6.86385359      -5.11566370
H       -0.49937604       3.36025702      -6.02682729
H        1.07981862       2.60511139      -6.29870208
H        0.16339678       3.24376851      -7.66407925
H        1.17755223       5.04138182      -5.37593105
H        0.38584862       5.55341805      -6.82046963
H        1.34338498       5.41623057      -8.99938745
H        3.37200403       5.70070496     -10.35591946
H        5.60568592       5.30935819      -9.35419079
H        5.81442386       4.63382012      -7.02100776
H        2.02917950       1.08823164      -4.06631466
H        0.61603337      -0.33990595      -2.64492783
H        1.30898352       2.29861636       0.69158730
H        2.69720328       3.74159170      -0.72274803
H        7.49593087       4.20476042      -3.81325022
H        9.39643554       5.70524584      -4.20162763
H        6.72962462       8.68142901      -5.81240580
H        4.81104595       7.21700122      -5.36710402
C       -2.68102134      -6.90532134      -0.87110121
C       -4.13064689      -6.82878374      -1.33483999
C       -4.32333923      -7.42022038      -2.71792686
C       -4.51186089      -8.81730897      -2.77403284
C       -4.73149174      -9.47418608      -3.98265817
C       -4.74377654      -8.75053397      -5.16685794
C       -4.55156954      -7.36771071      -5.14334374
C       -4.36297985      -6.68157052      -3.92899506
N       -4.19632625      -5.25686172      -3.95543294
N       -3.34612056      -4.69067623      -3.06918799
C       -3.34148325      -3.38031651      -3.32187100
C       -2.50709944      -2.49884093      -2.49986155
C       -1.23531483      -2.93594639      -2.09068670
C       -0.42352245      -2.13158907      -1.28668521
C       -0.88159860      -0.88159860      -0.88159860
C       -2.14350083      -0.43391687      -1.26760843
C       -2.95652141      -1.24329757      -2.06936233
C       -4.19991637      -3.09172172      -4.40990356
Cl      -4.50827871      -1.54745864      -5.06740806
C       -4.74359330      -4.30283435      -4.82229184
C       -5.75220197      -4.53976197      -5.86678567
C       -5.55999998      -4.02227871      -7.15806656
C       -6.50933543      -4.22901558      -8.16374309
C       -7.65510054      -4.97115692      -7.88730624
Br      -8.92607171      -5.27479007      -9.25220920
C       -7.86557296      -5.48922668      -6.61293572
C       -6.92657260      -5.25958346      -5.60259183
H       -2.57044716      -6.42223732       0.10497621
H       -1.99612859      -6.41672782      -1.57077568
H       -2.35566111      -7.94645490      -0.76912853
H       -4.51328654      -5.80559189      -1.27598667
H       -4.75496186      -7.38323533      -0.62153910
H       -4.49628087      -9.40549770      -1.85722442
H       -4.88159838     -10.55036348      -3.99666659
H       -4.89211255      -9.26227863      -6.11484372
H       -4.51523462      -6.85366508      -6.10035205
H       -0.87277518      -3.91736346      -2.39358717
H        0.55421855      -2.49419297      -0.98108083
H       -2.50925578       0.53698567      -0.94374246
H       -3.94850117      -0.88392205      -2.32911978
H       -4.66656803      -3.44881280      -7.39856068
H       -6.34289383      -3.80831475      -9.15210043
H       -8.75630328      -6.07345311      -6.39370305
H       -7.11961993      -5.66446099      -4.61107027
C       -6.21039390       4.12882377       0.11822622
C       -6.93034686       3.91905166       1.44487210
C       -7.00340979       5.19171679       2.26635990
C       -8.07348802       6.06152739       1.96818729
C       -8.26716057       7.24619238       2.67498305
C       -7.37965170       7.59985412       3.68166263
C       -6.30626101       6.76297949       3.99338349
C       -6.11406870       5.54530548       3.31417125
N       -5.01138207       4.70775524       3.68948360
N       -4.36998402       4.01424636       2.72175439
C       -3.37491737       3.35273175       3.31602164
C       -2.50378394       2.49680124       2.50521674
C       -2.12930256       2.91586567       1.21677969
C       -1.32007111       2.11422800       0.40749762
C       -0.88159860       0.88159860       0.88159860
C       -1.25013484       0.44300335       2.15188794
C       -2.06438060       1.24588813       2.95891258
C       -3.36211377       3.63658525       4.70284264
Cl      -2.27051218       3.00187874       5.85075449
C       -4.41197949       4.51620180       4.94053821
C       -4.87389273       5.05607845       6.22877842
C       -3.96283881       5.68383626       7.09367018
C       -4.37882831       6.19721760       8.32604819
C       -5.71794566       6.09925099       8.69636706
Br      -6.28732755       6.81656483      10.34917861
C       -6.63546780       5.47750973       7.85475784
C       -6.21176788       4.94280446       6.63417555
H       -6.12956319       3.18020050      -0.42205541
H       -5.20099537       4.52896913       0.25366759
H       -6.75768246       4.83233353      -0.51877145
H       -6.48562409       3.09651665       2.01272436
H       -7.95116803       3.57173854       1.23682972
H       -8.77607559       5.80761038       1.17531702
H       -9.10428459       7.89433958       2.43000428
H       -7.51384161       8.53478260       4.22061069
H       -5.60847476       7.10944729       4.75132970
H       -2.47675768       3.87411377       0.83285435
H       -1.04759456       2.45960502      -0.58614433
H       -0.91899631      -0.52411736       2.52113364
H       -2.36345175       0.86606901       3.93202225
H       -2.91396835       5.78085572       6.81911744
H       -3.65207903       6.66839322       8.98283676
H       -7.68299497       5.40300552       8.13745894
H       -6.94562257       4.45046521       5.99906341
C        5.17313428       0.08794347       5.37225308
C        4.89564040      -1.04044604       6.35818418
C        6.00989709      -2.06888551       6.38270387
C        7.10572509      -1.77583102       7.22164659
C        8.17640732      -2.65694459       7.35498409
C        8.18641957      -3.84201890       6.63272997
C        7.11966460      -4.15505871       5.78790068
C        6.01288371      -3.29405934       5.66660239
N        4.92962996      -3.67323424       4.80575671
N        4.29016546      -2.70588935       4.10992997
C        3.36289337      -3.31363170       3.36714569
C        2.49679403      -2.50382739       2.50518049
C        3.03724601      -1.39724601       1.82745589
C        2.23537419      -0.58942677       1.01699577
C        0.88159860      -0.88159860       0.88159860
C        0.32400798      -1.96780741       1.55321073
C        1.12841434      -2.77287634       2.36789062
C        3.41261812      -4.71288108       3.57604245
Cl       2.40385384      -5.87725799       2.84203357
C        4.42803379      -4.94372922       4.49695648
C        4.83278329      -6.22060735       5.10535896
C        5.12637538      -7.32493916       4.28903072
C        5.50560499      -8.55001064       4.84647847
C        5.60899743      -8.67471209       6.22985418
Br       6.14768237     -10.32142219       6.98396643
C        5.31873733      -7.59303944       7.05595859
C        4.91548705      -6.37652181       6.49673904
H        4.32594775       0.78054893       5.34230945
H        5.34454157      -0.28219938       4.35689114
H        6.06175817       0.65709603       5.66658240
H        3.92262374      -1.50329259       6.16894877
H        4.78923143      -0.60835108       7.36215379
H        7.12237215      -0.84662059       7.79001025
H        9.00427999      -2.41012698       8.01422147
H        9.03082981      -4.52213308       6.71627201
H        7.19914529      -5.06749747       5.20260899
H        4.09340593      -1.15418555       1.93613432
H        2.67679806       0.26231760       0.50657479
H       -0.73524546      -2.19233020       1.45892783
H        0.66206042      -3.59384719       2.90563539
H        5.06254384      -7.24617654       3.20522113
H        5.71647910      -9.39316483       4.19366508
H        5.40279933      -7.68423851       8.13642159
H        4.68201233      -5.54913956       7.16399930
