198
Properties=species:S:1:pos:R:3 pbc="F F F"
C        1.33217819       4.33069141      -7.52428636
C        1.98182193       5.69745403      -7.34470673
C        3.30282540       5.80689713      -8.08147602
C        3.22494008       6.16372477      -9.44424993
C        4.37006950       6.32764224     -10.22033632
C        5.62005405       6.11471976      -9.65610671
C        5.72798704       5.75240589      -8.31194313
C        4.58444830       5.61600893      -7.50280028
N        4.74956380       5.26794403      -6.12082515
N        3.83190140       4.45784458      -5.54595086
C        4.22769211       4.25852225      -4.28716847
C        3.41079912       3.41676907      -3.40794580
C        2.79695641       2.26490580      -3.92979778
C        1.99200596       1.45318111      -3.12632174
C        1.79150263       1.79150263      -1.79150263
C        2.38245075       2.93488912      -1.25739833
C        3.18477717       3.74871464      -2.06540157
C        5.44138792       4.94553235      -4.04433346
Cl       6.30217204       4.97946011      -2.57122532
C        5.78062145       5.58869745      -5.22911266
C        6.91137484       6.49531366      -5.48177318
C        8.21774724       6.09499557      -5.15731451
C        9.30611656       6.94372991      -5.38195970
C        9.09566953       8.19819275      -5.94941350
Br      10.56799384       9.33580718      -6.27898204
C        7.80821583       8.61468942      -6.27454218
C        6.71913463       7.77375761      -6.02556772
H        0.41052799       4.27016104      -6.93673131
H        1.98972264       3.51501541      -7.20860610
H        1.07330081       4.15367253      -8.57398327
H        2.08745625       5.95128584      -6.28583508
H        1.29575264       6.46332207      -7.73037365
H        2.25328900       6.32613459      -9.90929147
H        4.28190805       6.61060899     -11.26582348
H        6.51558995       6.21926221     -10.26409481
H        6.72432789       5.54372414      -7.93091179
H        2.93908353       1.99813566      -4.97621869
H        1.52593740       0.56999807      -3.55483185
H        2.21888755       3.20852038      -0.21831672
H        3.60710730       4.65149572      -1.63265205
H        8.40583490       5.11466444      -4.72315424
H       10.30633956       6.61514986      -5.11153166
H        7.63952864       9.59133304      -6.72230982
H        5.72094998       8.12690524      -6.27700804
C       -7.67524040      -3.98976293      -1.52215263
C       -8.13299634      -3.91710830      -2.97387805
C       -8.30966658      -5.29153058      -3.59000138
C       -9.55301613      -5.91807718      -3.36182146
C       -9.84839586      -7.16766677      -3.90198543
C       -8.89644225      -7.83041582      -4.66402244
C       -7.65379298      -7.23883270      -4.89971039
C       -7.34961559      -5.96197532      -4.39166660
N       -6.06864180      -5.38579971      -4.68389147
N       -5.46777833      -4.63439661      -3.73352190
C       -4.28981097      -4.25255419      -4.23101768
C       -3.41219753      -3.40716657      -3.41614989
C       -3.32222495      -3.63710414      -2.03233090
C       -2.51438330      -2.83523915      -1.22188635
C       -1.79150263      -1.79150263      -1.79150263
C       -1.87492788      -1.54020361      -3.15960671
C       -2.68821281      -2.34210047      -3.96858010
C       -4.11646970      -4.78261323      -5.53217080
Cl      -2.76475879      -4.54236633      -6.54573236
C       -5.25983649      -5.51930793      -5.81928715
C       -5.60928317      -6.20733339      -7.07184512
C       -4.70607761      -7.11411049      -7.64986923
C       -5.01465975      -7.77327389      -8.84387254
C       -6.24072696      -7.54026363      -9.46228518
Br      -6.67096875      -8.45050835     -11.06130596
C       -7.14774132      -6.64257619      -8.90712992
C       -6.82598135      -5.96602988      -7.72644874
H       -7.50689770      -2.98244485      -1.12807779
H       -6.74689701      -4.55778167      -1.40866547
H       -8.43248245      -4.47325099      -0.89522317
H       -7.46431056      -3.28970846      -3.57055816
H       -9.09317749      -3.38544057      -3.01083030
H      -10.31074084      -5.41946442      -2.75850980
H      -10.81698663      -7.62430341      -3.71705048
H       -9.11432367      -8.81601108      -5.06861223
H       -6.92292853      -7.82024621      -5.45578907
H       -3.89294437      -4.44470199      -1.57579152
H       -2.46489032      -3.03162224      -0.15425476
H       -1.32069168      -0.71881541      -3.60621756
H       -2.76041536      -2.10445139      -5.02638833
H       -3.74707033      -7.31914211      -7.17744115
H       -4.29386535      -8.46184264      -9.27731309
H       -8.10829263      -6.46110203      -9.38377684
H       -7.54650294      -5.25976125      -7.31859908
C       -1.01604811       5.07456798       7.09653987
C       -1.85028979       6.32545317       6.84823973
C       -3.08302298       6.37820875       7.72996681
C       -2.89815032       6.91192881       9.02283564
C       -3.96006494       7.04317677       9.91480635
C       -5.22835544       6.62080149       9.54172360
C       -5.44004513       6.08065719       8.27163374
C       -4.38692125       5.97214669       7.34418956
N       -4.66103330       5.43479486       6.04250482
N       -3.71843947       4.66672490       5.45053247
C       -4.22491364       4.26563783       4.28283136
C       -3.41187971       3.41631943       3.40731484
C       -2.60169552       2.41670482       3.97325965
C       -1.79571750       1.60526609       3.17052521
C       -1.79150263       1.79150263       1.79150263
C       -2.57942707       2.78378429       1.21152684
C       -3.38257644       3.59816460       2.01815234
C       -5.53568817       4.77507395       4.12049161
Cl      -6.55420055       4.52421526       2.77444167
C       -5.81833406       5.52135081       5.25874669
C       -7.01948868       6.31955633       5.54941667
C       -8.29250906       5.73665009       5.44089818
C       -9.44769029       6.47902631       5.70508957
C       -9.33591853       7.81112306       6.09623418
Br     -10.89439300       8.80827639       6.48011367
C       -8.08352385       8.40792700       6.20599658
C       -6.93137371       7.67022609       5.91686017
H       -0.16627678       5.04400833       6.40713523
H       -1.59586098       4.15653920       6.96094398
H       -0.62018782       5.06277295       8.11799584
H       -2.10593631       6.42903860       5.78960226
H       -1.22814950       7.20651125       7.05478762
H       -1.90889599       7.24056128       9.33925779
H       -3.79141051       7.46491710      10.90201291
H       -6.05568764       6.70027341      10.24298592
H       -6.43828326       5.71432813       8.04635242
H       -2.58996613       2.27087881       5.05259294
H       -1.17584171       0.84191114       3.63301447
H       -2.57007783       2.93971953       0.13592729
H       -3.96231939       4.38522014       1.54371556
H       -8.40209456       4.69417008       5.14738895
H      -10.42204852       6.00817007       5.60280249
H       -7.99105519       9.44631838       6.51579794
H       -5.96428720       8.16264851       5.99792755
C        7.77561870      -3.71617896       1.69535829
C        8.16575797      -3.68996785       3.16825687
C        8.37792947      -5.08206268       3.73120638
C        9.65736580      -5.64265233       3.53289665
C        9.98562642      -6.90151251       4.03090914
C        9.03256318      -7.63929578       4.71902156
C        7.75509432      -7.11391201       4.92332973
C        7.41540617      -5.82968921       4.45816212
N        6.09792434      -5.32393694       4.71647170
N        5.50544740      -4.55687634       3.77337311
C        4.29067687      -4.24994415       4.23276182
C        3.41179525      -3.40735708       3.41636165
C        3.39292120      -3.57757944       2.02115936
C        2.58546608      -2.77558367       1.21045905
C        1.79150263      -1.79150263       1.79150263
C        1.80355322      -1.59952983       3.17165515
C        2.61650643      -2.40125258       3.98113437
C        4.08507334      -4.84592255       5.50025784
Cl       2.68083914      -4.71145221       6.46056613
C        5.24725717      -5.54433377       5.80684063
C        5.57273168      -6.27291836       7.04281163
C        4.68749561      -7.24371189       7.53884983
C        4.97342600      -7.94260272       8.71577745
C        6.15940398      -7.68476196       9.39910984
Br       6.56053141      -8.64741351      10.97483814
C        7.04785777      -6.72391781       8.92567185
C        6.74740052      -6.00886243       7.76219701
H        7.57882481      -2.70023000       1.33836553
H        6.88002015      -4.31841443       1.51490958
H        8.58079673      -4.13701351       1.08314638
H        7.44370915      -3.12026131       3.76060672
H        9.09813211      -3.11912615       3.27219011
H       10.41715225      -5.08440514       2.98715767
H       10.98120668      -7.30650259       3.87063126
H        9.27734588      -8.63188246       5.08971863
H        7.02795738      -7.75146515       5.41954128
H        4.01930828      -4.33780015       1.55632945
H        2.59165339      -2.92498806       0.13412586
H        1.19342028      -0.82437330       3.62793108
H        2.63152806      -2.20922454       5.05050248
H        3.76039266      -7.46863516       7.01462576
H        4.26658623      -8.68105780       9.08537705
H        7.97739308      -6.52263015       9.45314827
H        7.45204251      -5.25392321       7.41889754
C       -0.00445707       0.01189536      -1.78238275
H       -0.66409135       0.67374010      -2.43557963
H        0.65740317      -0.63156657      -2.45157240
C       -0.90989263      -0.90692880      -0.91072765
C        0.90977584       0.90977584      -0.90977584
C       -0.00465871       1.77757030       0.00794375
H       -0.66225468       2.44313916      -0.64384735
H        0.64322798       2.43503045       0.67728295
C       -1.78241447       0.00034974      -0.00472694
H       -2.45427497      -0.65498947       0.64260836
H       -2.43311707       0.67328779      -0.65473579
C       -0.91132561       0.90220522       0.91563759
C       -0.01476271      -0.02253852       1.78660255
H       -0.67934791      -0.69751639       2.42135241
H        0.63392994       0.61504881       2.47327442
C        0.01484550      -1.77751727      -0.01636693
H        0.67870853      -2.42144646      -0.68295456
H       -0.62264859      -2.45592969       0.64226336
C        1.78714474       0.01002794       0.00389507
H        2.44202412       0.67113390       0.66197326
H        2.45385902      -0.65136977      -0.64189061
C        0.91606151      -0.90478549       0.90901405
