198
Properties=species:S:1:pos:R:3 pbc="F F F"
C        1.79163488       1.79163488      -1.79163488
C        2.87386953       1.23326465      -2.46844299
C        3.67958639       2.03895908      -3.28136891
C        3.39896394       3.40303590      -3.43554619
C        2.31262797       3.94905197      -2.73024648
C        1.51040259       3.14913995      -1.91214816
C        4.20070196       4.27064761      -4.30479069
N        4.43303284       5.54288552      -3.94325597
N        5.06543367       6.09768927      -4.99833060
C        5.31372377       7.53718465      -4.97765672
C        4.10664072       8.32667997      -5.44236486
C        3.97140550       8.59423519      -6.81908325
C        2.86838040       9.28916665      -7.31445820
C        1.87833054       9.72733278      -6.44406263
C        1.99363114       9.47466370      -5.07839187
C        3.10395763       8.78607094      -4.55880440
C        3.14712684       8.52834893      -3.07591902
C        5.39914469       5.18605697      -5.97555043
C        6.15316529       5.48864332      -7.18889714
C        7.50460860       5.85192820      -7.11669157
C        8.22699947       6.12537966      -8.28147292
C        7.60164171       6.02303641      -9.52254908
Br       8.58032370       6.38265873     -11.09873459
C        6.26196376       5.65131197      -9.61013371
C        5.53985341       5.38467440      -8.44424113
C        4.79764683       4.00546108      -5.57067088
Cl       4.75975752       2.54126449      -6.44252626
H        3.10171693       0.17512758      -2.37096717
H        4.53112536       1.58252865      -3.77848821
H        2.08247195       5.00925730      -2.82179660
H        0.67412061       3.59588219      -1.38139181
H        6.17789851       7.75751310      -5.61134915
H        5.61830083       7.80513022      -3.96102764
H        4.72989166       8.25800949      -7.52340668
H        2.78015818       9.48349747      -8.38013108
H        1.01327531      10.26296948      -6.82596905
H        1.20317869       9.81944994      -4.41419812
H        2.88377138       7.48959634      -2.86168469
H        2.43468559       9.16772654      -2.54247464
H        4.13387987       8.75476310      -2.66248983
H        8.01026357       5.91149118      -6.15503858
H        9.27490911       6.40543076      -8.21018722
H        5.77244885       5.55914564     -10.57617308
H        4.49492715       5.09004415      -8.52385658
C       -1.79163488      -1.79163488      -1.79163488
C       -1.43460659      -3.11838731      -2.02258328
C       -2.24463420      -3.92936657      -2.82591361
C       -3.42389003      -3.42429003      -3.38936597
C       -3.75616129      -2.07837374      -3.15739139
C       -2.94609478      -1.26381633      -2.36177959
C       -4.31416600      -4.25355245      -4.20842182
N       -4.94807597      -3.71067209      -5.26042627
N       -5.77761514      -4.67672272      -5.70711567
C       -6.73278906      -4.33683328      -6.75894279
C       -7.98456744      -3.69116544      -6.19995267
C       -9.05046815      -4.52547324      -5.80878255
C      -10.21746811      -3.99574718      -5.25878995
C      -10.34033138      -2.62278080      -5.08661378
C       -9.29847505      -1.77966053      -5.46855112
C       -8.11915907      -2.29403292      -6.03564098
C       -7.02700755      -1.32383722      -6.40055002
C       -5.58979251      -5.88945743      -5.08150215
C       -6.29044412      -7.12690458      -5.41335705
C       -6.06705302      -7.76586487      -6.64031048
C       -6.72772821      -8.95851587      -6.94760797
C       -7.60391379      -9.52152305      -6.02179036
Br      -8.48997541     -11.13953420      -6.43220741
C       -7.82651102      -8.90361333      -4.79328509
C       -7.17004345      -7.70807770      -4.49064779
C       -4.68417993      -5.62191042      -4.06768844
Cl      -4.15264732      -6.71668590      -2.87421504
H       -0.52977087      -3.53241007      -1.58563074
H       -1.92999960      -4.95310812      -3.00903451
H       -4.65970781      -1.65796493      -3.59585312
H       -3.22845489      -0.22790206      -2.19503765
H       -6.98929152      -5.24493920      -7.31253005
H       -6.21763319      -3.69038032      -7.47644518
H       -8.97845794      -5.60483335      -5.92801655
H      -11.02781694      -4.65564212      -4.96032765
H      -11.24477196      -2.20561589      -4.65182599
H       -9.41133519      -0.70754766      -5.31794390
H       -6.22791330      -1.35153253      -5.65560657
H       -7.40740934      -0.29688529      -6.44059214
H       -6.61907983      -1.54021986      -7.39183311
H       -5.36680531      -7.34877505      -7.36121296
H       -6.54413305      -9.44335478      -7.90303925
H       -8.50031252      -9.34432070      -4.06313436
H       -7.34702891      -7.23590059      -3.52589838
C       -1.79163488       1.79163488       1.79163488
C       -1.45495200       3.12864003       1.99198515
C       -2.26511804       3.93949582       2.79530051
C       -3.42452076       3.42365506       3.38937021
C       -3.73612097       2.06792055       3.18788490
C       -2.92571088       1.25363043       2.39234938
C       -4.31496076       4.25162811       4.20955140
N       -4.91968216       3.71682671       5.28266546
N       -5.75864441       4.67579200       5.72701713
C       -6.68825894       4.33811000       6.80219619
C       -7.93784203       3.65977516       6.27806836
C       -9.02579341       4.46736663       5.89156390
C      -10.19259577       3.90663131       5.37277816
C      -10.29328038       2.52873643       5.22770913
C       -9.22937006       1.71173150       5.60558514
C       -8.04966474       2.25765502       6.14151321
C       -6.93344667       1.31421188       6.50373624
C       -5.60448072       5.88001123       5.07626014
C       -6.32166227       7.11049850       5.39854498
C       -6.08794060       7.77584194       6.60944582
C       -6.76477869       8.96181819       6.90725517
C       -7.66774292       9.49179337       5.98769092
Br      -8.57585233      11.10081504       6.38504965
C       -7.90108608       8.84747931       4.77484406
C       -7.22831702       7.65862910       4.48182281
C       -4.71255488       5.61026265       4.05096126
Cl      -4.22287974       6.69232592       2.82834261
H       -0.56591979       3.55082839       1.53106350
H       -1.96610646       4.97194579       2.95408997
H       -4.62371973       1.63939930       3.65040683
H       -3.19193910       0.20989573       2.24955977
H       -6.95137912       5.25146241       7.34391924
H       -6.14843148       3.71436730       7.52165991
H       -8.97150194       5.54986101       5.98994489
H      -11.02019901       4.54618692       5.07740078
H      -11.19760022       2.08738417       4.81722945
H       -9.32519765       0.63516745       5.47646166
H       -6.14857803       1.34262833       5.74384604
H       -7.29411507       0.28146871       6.56930300
H       -6.51173448       1.55611646       7.48328186
H       -5.36723901       7.38479080       7.32476351
H       -6.57290839       9.46738000       7.85023869
H       -8.59595153       9.26244761       4.04936845
H       -7.41398090       7.16567289       3.52917409
C        1.79163488      -1.79163488       1.79163488
C        2.93926517      -1.26020603       2.37610597
C        3.74539449      -2.06551154       3.18900835
C        3.40083107      -3.40104943       3.43566553
C        2.24815341      -3.92146565       2.82230736
C        1.44489773      -3.12240296       2.00439001
C        4.20286562      -4.26481526       4.30845938
N        4.34520823      -5.56588603       4.00808007
N        5.00590758      -6.09812284       5.05742312
C        5.17457981      -7.54845298       5.10553235
C        3.95513374      -8.24157766       5.67897414
C        3.88441472      -8.42630764       7.07400157
C        2.77555717      -9.02944174       7.66700633
C        1.71526973      -9.45674188       6.87771434
C        1.76594268      -9.28511879       5.49562524
C        2.88035584      -8.69002679       4.87845034
C        2.85270621      -8.51557625       3.38311233
C        5.44352366      -5.15561335       5.96161509
C        6.24810503      -5.43480933       7.14779139
C        7.57165465      -5.87796208       7.02361163
C        8.34350557      -6.12892929       8.16141719
C        7.79639843      -5.92426265       9.42656613
Br       8.84256824      -6.25355642      10.96559236
C        6.48591052      -5.47253773       9.56496119
C        5.71390820      -5.22843934       8.42642140
C        4.88448877      -3.96619638       5.52309364
Cl       4.97545643      -2.45731585       6.31077599
H        3.21794322      -0.22359323       2.20627523
H        4.64729055      -1.63224324       3.61260844
H        1.96672424      -4.96032837       2.98647324
H        0.55681548      -3.54869829       1.54588083
H        6.06034711      -7.78320565       5.70320801
H        5.40576481      -7.88780094       4.09089293
H        4.69887932      -8.09638444       7.71604406
H        2.73791333      -9.16063859       8.74523480
H        0.84576963      -9.92077063       7.33567358
H        0.92143778      -9.61958728       4.89580169
H        2.63399155      -7.47656729       3.12449356
H        2.07753481      -9.14112176       2.92623020
H        3.80061158      -8.81988868       2.93063254
H        8.01767670      -6.01807502       6.04104161
H        9.36900228      -6.47174045       8.04978436
H        6.05798812      -5.30060615      10.54917331
H        4.69264749      -4.87081478       8.54536562
C       -0.00445707       0.01189536      -1.78238275
H       -0.66409135       0.67374010      -2.43557963
H        0.65740317      -0.63156657      -2.45157240
C       -0.90989263      -0.90692880      -0.91072765
C        0.90977584       0.90977584      -0.90977584
C       -0.00465871       1.77757030       0.00794375
H       -0.66225468       2.44313916      -0.64384735
H        0.64322798       2.43503045       0.67728295
C       -1.78241447       0.00034974      -0.00472694
H       -2.45427497      -0.65498947       0.64260836
H       -2.43311707       0.67328779      -0.65473579
C       -0.91132561       0.90220522       0.91563759
C       -0.01476271      -0.02253852       1.78660255
H       -0.67934791      -0.69751639       2.42135241
H        0.63392994       0.61504881       2.47327442
C        0.01484550      -1.77751727      -0.01636693
H        0.67870853      -2.42144646      -0.68295456
H       -0.62264859      -2.45592969       0.64226336
C        1.78714474       0.01002794       0.00389507
H        2.44202412       0.67113390       0.66197326
H        2.45385902      -0.65136977      -0.64189061
C        0.91606151      -0.90478549       0.90901405
