181
Properties=species:S:1:pos:R:3 pbc="F F F"
C        0.00000000       0.00000000       0.00000000
C        0.88143987       0.88143987      -0.88143987
C        2.02928897       1.46351254      -0.34883067
C        2.83057830       2.27340354      -1.15655549
C        2.47838597       2.51252539      -2.49328622
C        1.32889115       1.91445212      -3.02268559
C        0.53169214       1.09754332      -2.21392067
C        3.35056739       3.41348403      -3.29779106
O        4.51756079       3.58147940      -2.94340087
C        2.73098975       4.15653251      -4.47562781
O        3.71553882       5.00142747      -5.07564162
C        4.45178481       4.41026204      -6.05023996
O        4.19734691       3.35622399      -6.60541959
C        5.62304312       5.26494725      -6.35316220
C        6.24538715       6.00103398      -5.33667050
C        7.34924225       6.79364926      -5.63336145
C        7.83164577       6.84748298      -6.94197129
C        7.23195734       6.09489783      -7.96295574
N        7.79223375       6.21285667      -9.25169022
C        7.47708271       5.46836523     -10.37274228
O        6.72000693       4.50843482     -10.43038519
C        8.19286861       5.88004674     -11.61251389
C        8.60485467       4.88815527     -12.51163731
C        9.27274008       5.24106330     -13.68681700
C        9.51604869       6.58523718     -13.96613886
C        9.09371831       7.58128838     -13.08490318
C        8.42771061       7.23037950     -11.90730868
C        6.12483130       5.29874317      -7.66114587
H        2.31012632       1.29574292       0.68766510
H        3.72774125       2.72539353      -0.73588899
H        1.03937817       2.04769391      -4.06061842
H       -0.35703207       0.63197419      -2.63358211
H        1.93899772       4.80887429      -4.09367482
H        2.29811335       3.46665315      -5.20494916
H        5.88441343       5.94408300      -4.31142170
H        7.83702928       7.36112057      -4.84490921
H        8.69630840       7.47393701      -7.14657304
H        8.56704250       6.85780695      -9.33563896
H        8.40555119       3.83964604     -12.29657142
H        9.59099295       4.46287816     -14.37606802
H        9.26685655       8.63023543     -13.31249187
H        8.07029222       8.01823611     -11.24938277
H        5.62502176       4.70720740      -8.42361703
C       10.19960183       6.95072643     -15.17971734
C       10.77207759       7.25682368     -16.19608931
Br      11.69772247       7.75175703     -17.83947683
C       -0.88143987      -0.88143987      -0.88143987
C       -0.31063780      -1.60563941      -1.92535496
C       -1.12066103      -2.40697733      -2.73289896
C       -2.50336488      -2.47501974      -2.50581297
C       -3.06629676      -1.75216217      -1.44756993
C       -2.25197944      -0.95591546      -0.63526122
C       -3.32357650      -3.31752886      -3.42073712
O       -2.77180748      -4.22002876      -4.05060482
C       -4.79559823      -2.96582872      -3.60172313
O       -5.38346483      -3.85592698      -4.55321610
C       -5.89269382      -4.99653745      -4.02305554
O       -6.10768689      -5.20843337      -2.84287022
C       -6.16777991      -5.95480914      -5.11856352
C       -5.33661719      -6.00123237      -6.24524208
C       -5.60175795      -6.91125518      -7.26323984
C       -6.69278005      -7.77479672      -7.15352327
C       -7.51697297      -7.75453059      -6.01830736
N       -8.59230680      -8.66661581      -5.99785802
C       -9.44069076      -8.93680239      -4.94069707
O       -9.35726795      -8.50181890      -3.79974008
C      -10.53166329      -9.90220894      -5.25155701
C      -10.91748433     -10.82046621      -4.26669670
C      -11.94172863     -11.73504913      -4.52384263
C      -12.58599410     -11.72116076      -5.76026987
C      -12.22037430     -10.79845399      -6.74108159
C      -11.19414159      -9.88428346      -6.48697373
C       -7.24678959      -6.84068444      -4.99724630
H        0.75749934      -1.55561662      -2.12008686
H       -0.66954626      -2.97227428      -3.54720322
H       -4.12631593      -1.80321422      -1.21816035
H       -2.69557410      -0.40128378       0.18833366
H       -4.85984554      -1.95772825      -4.02397304
H       -5.33451494      -2.98450086      -2.65069986
H       -4.47274848      -5.34373872      -6.32343093
H       -4.95465610      -6.95272019      -8.13568277
H       -6.87703590      -8.47696376      -7.96281878
H       -8.69491499      -9.24212885      -6.82344457
H      -10.41982139     -10.82358351      -3.29836375
H      -12.23093712     -12.44553961      -3.75346240
H      -12.73598030     -10.77560414      -7.69799941
H      -10.94625631      -9.14625859      -7.24539619
H       -7.86513748      -6.78547366      -4.10523505
C      -13.64556199     -12.65976859      -6.02471502
C      -14.53295009     -13.44585265      -6.24618783
Br     -15.96778161     -14.71688409      -6.60429063
C       -0.88143987       0.88143987       0.88143987
C       -0.57699255       1.03244101       2.23219861
C       -1.38837970       1.83541268       3.03674494
C       -2.51179223       2.47756157       2.49484380
C       -2.80349434       2.32857523       1.13395929
C       -1.98515100       1.52976315       0.32824197
C       -3.36183292       3.29248827       3.40752129
O       -2.87086936       3.71851488       4.45305683
C       -4.82958133       3.48779992       3.04576882
O       -5.47462263       4.24762341       4.07036187
C       -5.42458022       5.59233551       3.89537109
O       -5.11403926       6.17392339       2.87102782
C       -5.82832525       6.25653386       5.15629346
C       -5.50346828       5.68589908       6.39372428
C       -5.88191805       6.32404552       7.57028939
C       -6.58016238       7.53105695       7.50988071
C       -6.88868853       8.12453578       6.27658661
N       -7.59383674       9.34507766       6.31786623
C       -7.87638794      10.18478535       5.25701694
O       -7.48706114      10.06932516       4.10244064
C       -8.70629109      11.37084083       5.60829732
C       -8.43404909      12.59203719       4.97856096
C       -9.19792344      13.72203394       5.28066301
C      -10.23982370      13.62545078       6.20215026
C      -10.52964405      12.40899868       6.82126715
C       -9.76504205      11.27781349       6.52254324
C       -6.50562009       7.48190480       5.09719544
H        0.28423038       0.53352435       2.66891016
H       -1.14559190       1.95133232       4.09209955
H       -3.64415768       2.83452285       0.66900998
H       -2.21493655       1.42293094      -0.72934327
H       -5.31277197       2.50560578       3.02316907
H       -4.94411729       3.95944883       2.06614953
H       -4.94037288       4.75579096       6.44375429
H       -5.62580615       5.88575389       8.53149902
H       -6.86311886       8.00947355       8.44422603
H       -7.84400900       9.67597801       7.24050140
H       -7.62624740      12.66339745       4.25212380
H       -8.97585938      14.66561750       4.78846225
H      -11.35428675      12.32991775       7.52537935
H      -10.02655676      10.32854962       6.98280471
H       -6.73247037       7.90232998       4.12104584
C      -11.03144006      14.78816282       6.51044272
C      -11.69441877      15.76193416       6.76863765
Br     -12.76639926      17.33644005       7.18611702
C        0.88143987      -0.88143987       0.88143987
C        2.22230383      -1.06639267       0.55293567
C        3.02449154      -1.87745738       1.35858840
C        2.48408565      -2.51447564       2.48563630
C        1.13823663      -2.31389852       2.81389371
C        0.33834130      -1.49510963       2.00970519
C        3.37716180      -3.39665982       3.28802086
O        4.59502475      -3.23138490       3.21603141
C        2.74389568      -4.52360754       4.09564685
O        3.77001905      -5.27818012       4.74440874
C        4.12067058      -4.81927262       5.97234362
O        3.50039511      -4.01439563       6.64419975
C        5.38550072      -5.47006233       6.38558952
C        6.36543508      -5.78296689       5.43468966
C        7.55195205      -6.38696586       5.83733505
C        7.75961020      -6.67416817       7.18732167
C        6.79600993      -6.34225519       8.15154579
N        7.09764452      -6.66944946       9.48968666
C        6.38522577      -6.31359859      10.61936586
O        5.41314773      -5.57193799      10.67374121
C        6.91854603      -6.87502651      11.89185671
C        6.87558840      -6.08282783      13.04623102
C        7.36158847      -6.58182118      14.25721074
C        7.87782051      -7.87577724      14.31382699
C        7.90846322      -8.67853769      13.17290896
C        7.42523257      -8.18044459      11.95972162
C        5.60652430      -5.73426104       7.74393500
H        2.65315339      -0.58759005      -0.32253931
H        4.07264012      -2.01810282       1.09828082
H        0.69010468      -2.76214128       3.69544455
H       -0.70507776      -1.33966949       2.27393249
H        2.23722647      -5.20238540       3.40193495
H        2.01255547      -4.14334443       4.81381576
H        6.21503929      -5.54057342       4.38430542
H        8.31594871      -6.62536478       5.10174557
H        8.69602001      -7.14550093       7.47529750
H        7.97794944      -7.14559622       9.63694275
H        6.46334215      -5.07611489      13.00231160
H        7.32642416      -5.95719026      15.14632471
H        8.29355577      -9.69409867      13.22192941
H        7.41952337      -8.83005092      11.08833681
H        4.83023993      -5.46889508       8.45671118
C        8.37414446      -8.39330284      15.56259830
C        8.78981577      -8.82673052      16.60844427
Br       9.46192113      -9.52754643      18.29948876
