165
Properties=species:S:1:pos:R:3 pbc="F F F"
C        0.00000000       0.00000000       0.00000000
C        0.88142158       0.88142158      -0.88142158
C        1.50138274       0.33980064      -2.00600396
C        2.31335436       1.14409274      -2.81535001
C        2.49784981       2.49099699      -2.50021532
C        1.87044168       3.02118957      -1.36785309
C        1.06391596       2.22158529      -0.55622069
O        3.25676645       3.39399638      -3.18903411
C        3.95139208       2.96789493      -4.36309311
C        5.24309361       2.33306439      -3.99780646
O        5.96840597       2.90813959      -2.99551715
N        7.14459088       2.16672306      -2.88088874
C        7.02435192       1.22651163      -3.83259410
N        5.84085903       1.30088263      -4.54156800
C        8.04615460       0.23405989      -4.14651880
C        9.22037818       0.10858637      -3.39296772
C       10.19632879      -0.83906213      -3.74219076
C       10.01945552      -1.67361690      -4.85359877
C        8.84361594      -1.55328659      -5.59469552
C        7.86878523      -0.61333093      -5.24505366
N       11.03914640      -2.59991738      -5.15672623
C       11.07642804      -3.49049501      -6.21858443
O       10.23618360      -3.56939759      -7.10865211
C       12.22477668      -4.37625403      -6.19774047
C       12.52227655      -5.46528832      -6.99629526
C       13.75900998      -5.97894903      -6.54279899
C       14.15069703      -5.16723280      -5.50301681
Br      15.73136895      -5.36518562      -4.53255309
O       13.22350042      -4.19515047      -5.27694739
H        1.36370984      -0.70819725      -2.26062908
H        2.78502299       0.67686208      -3.67374254
H        2.01599982       4.06861192      -1.11255191
H        0.59008628       2.65357112       0.32077686
H        4.16364308       3.86786359      -4.95079184
H        3.33348314       2.32629536      -5.00072399
H        9.39161917       0.74934937      -2.52922893
H       11.09504640      -0.90514153      -3.13404448
H        8.63868442      -2.17620437      -6.45881458
H        6.96850391      -0.54843206      -5.85333497
H       11.83631386      -2.63830539      -4.53057112
H       11.90088568      -5.83558680      -7.80137412
H       14.29412082      -6.83396630      -6.93201045
C       -0.88142158      -0.88142158      -0.88142158
C       -1.63936313      -1.90043931      -0.30738491
C       -2.44668637      -2.71334169      -1.11276905
C       -2.49809345      -2.50002892      -2.49093975
C       -1.73125414      -1.47434130      -3.05388890
C       -0.92194770      -0.66483635      -2.25493789
O       -3.23289536      -3.20729717      -3.39960442
C       -4.05370953      -4.28481309      -2.94385749
C       -3.24813984      -5.52408576      -2.80173886
O       -2.31906462      -5.78751877      -3.76547933
N       -1.74207255      -7.01419348      -3.43593665
C       -2.38680410      -7.38064285      -2.31601070
N       -3.32870444      -6.46354213      -1.89106308
C       -2.17145956      -8.64107178      -1.61420195
C       -1.17537638      -9.54795731      -1.99859858
C       -1.01583435     -10.76591172      -1.31771136
C       -1.85219362     -11.10212590      -0.24511787
C       -2.83554151     -10.19129306       0.14180972
C       -2.99224422      -8.97594893      -0.53231481
N       -1.64618736     -12.34299748       0.39322959
C       -2.37335924     -12.87704135       1.44588313
O       -3.36505600     -12.36554576       1.95516364
C       -1.84859990     -14.13624212       1.93857891
C       -2.21632565     -14.88106920       3.04411136
C       -1.37523040     -16.01725733       3.06962779
C       -0.55206587     -15.90692166       1.97250649
Br       0.75615544     -17.14666351       1.49177164
O       -0.82278997     -14.76435903       1.28185167
H       -1.60686735      -2.07459656       0.76532224
H       -3.01014913      -3.50150528      -0.62397319
H       -1.76122668      -1.30747119      -4.12846578
H       -0.33151089       0.12294859      -2.71431823
H       -4.81311406      -4.45390107      -3.71528338
H       -4.60007505      -4.03169251      -2.02873493
H       -0.51575224      -9.31988852      -2.83455671
H       -0.23275281     -11.44445953      -1.64673702
H       -3.50801372     -10.38413685       0.97085594
H       -3.77545624      -8.29623998      -0.20171060
H       -0.87649170     -12.91560235       0.06351445
H       -2.99733815     -14.61321131       3.74387645
H       -1.37611442     -16.81518971       3.79913916
C       -0.88142158       0.88142158       0.88142158
C       -2.09438853       1.36170929       0.39108953
C       -2.90435968       2.17322883       1.19520861
C       -2.50074094       2.49707415       2.49124704
C       -1.28031118       2.00902380       2.97014936
C       -0.46816649       1.20349635       2.17005910
O       -3.17864781       3.27390921       3.38723992
C       -4.43803359       3.83436212       3.00998441
C       -4.23638963       5.09157996       2.24599487
O       -3.25779131       5.94057205       2.67369936
N       -3.30359565       7.05409047       1.83451656
C       -4.31279849       6.77866896       0.99199020
N       -4.90938468       5.55360528       1.22031970
C       -4.79081131       7.68341574      -0.04749375
C       -4.15319671       8.89840816      -0.32967260
C       -4.65878574       9.75867422      -1.31800253
C       -5.81338115       9.42345523      -2.03739899
C       -6.43889438       8.20740071      -1.76127023
C       -5.93359380       7.34761921      -0.78070504
N       -6.27525921      10.33264056      -3.01194453
C       -7.40346835      10.20921728      -3.80816817
O       -8.22151234       9.29757166      -3.74364589
C       -7.55143655      11.27527636      -4.78044979
C       -8.45618509      11.41406173      -5.81696333
C       -8.15263327      12.63406951      -6.46384283
C       -7.08943168      13.17500884      -5.77795948
Br      -6.27703113      14.80459369      -6.18288840
O       -6.70841030      12.35552565      -4.75863862
H       -2.41830178       1.11482580      -0.61698591
H       -3.83433755       2.53367308       0.76761697
H       -0.95644931       2.26374261       3.97697173
H        0.47768835       0.83934927       2.56121962
H       -4.96879383       4.07600385       3.93750083
H       -5.06895220       3.11515475       2.47639555
H       -3.25941444       9.19180617       0.21897686
H       -4.13722047      10.69365065      -1.50692176
H       -7.32874952       7.88204535      -2.28950023
H       -6.45525219       6.41097767      -0.59282305
H       -5.72489598      11.17056367      -3.16688005
H       -9.23165842      10.70146204      -6.06644745
H       -8.65274643      13.06130559      -7.32188704
C        0.88142158      -0.88142158       0.88142158
C        0.35542164      -1.45336951       2.03839619
C        1.16149361      -2.25987048       2.85143303
C        2.49126112      -2.49703796       2.50076304
C        3.00646627      -1.91569570       1.33732237
C        2.20735943      -1.10764102       0.52672148
O        3.39443336      -3.25542335       3.18994024
C        2.98549563      -3.89729400       4.39959049
C        3.07792541      -2.95366409       5.54237495
O        4.15921951      -2.12304532       5.58979789
N        4.04087482      -1.38413598       6.76719188
C        2.91041043      -1.84866480       7.32438242
N        2.28198300      -2.82531645       6.57601021
C        2.39020287      -1.41896217       8.61756826
C        2.98313061      -0.38508385       9.35371781
C        2.47261019      -0.01746311      10.60938413
C        1.36495345      -0.68000508      11.15447886
C        0.77040886      -1.70142865      10.41318735
C        1.27486434      -2.06516573       9.16047789
N        0.90408191      -0.26913815      12.42273519
C       -0.14879617      -0.80527184      13.14804179
O       -0.81755741      -1.77803651      12.81495902
C       -0.42988560      -0.09508798      14.38106073
C       -1.47178813      -0.24772214      15.27734949
C       -1.27272786       0.70618723      16.30177503
C       -0.11541149       1.37674820      15.97864074
Br       0.64529308       2.74263739      16.99608073
O        0.40191803       0.90620156      14.80958086
H       -0.67944250      -1.27532829       2.32025588
H        0.71283950      -2.67444160       3.74834650
H        4.04430997      -2.09069512       1.06215856
H        2.62987995      -0.66290423      -0.36990365
H        3.68661148      -4.72074556       4.57494147
H        1.99402045      -4.35477429       4.31170775
H        3.85127902       0.14257454       8.96149298
H        2.96114276       0.78849301      11.15129960
H       -0.09646512      -2.24632902      10.77143074
H        0.78462154      -2.87118623       8.61759905
H        1.37928439       0.51228309      12.86157830
H       -2.27729774      -0.96401059      15.17996015
H       -1.89818660       0.87665509      17.16700666
