173
Properties=species:S:1:pos:R:3 pbc="F F F"
C        0.00000000       0.00000000       0.00000000
C        0.88142158       0.88142158      -0.88142158
C        1.50138274       0.33980064      -2.00600396
C        2.31335436       1.14409274      -2.81535001
C        2.49784981       2.49099699      -2.50021532
C        1.87044168       3.02118957      -1.36785309
C        1.06391596       2.22158529      -0.55622069
O        3.25676645       3.39399638      -3.18903411
C        3.95139208       2.96789493      -4.36309311
C        5.24309361       2.33306439      -3.99780646
O        5.96840597       2.90813959      -2.99551715
N        7.14459088       2.16672306      -2.88088874
C        7.02435192       1.22651163      -3.83259410
N        5.84085903       1.30088263      -4.54156800
C        8.04615460       0.23405989      -4.14651880
C        9.22037818       0.10858637      -3.39296772
C       10.19632879      -0.83906213      -3.74219076
C       10.01945552      -1.67361690      -4.85359877
C        8.84361594      -1.55328659      -5.59469552
C        7.86878523      -0.61333093      -5.24505366
N       11.03914640      -2.59991738      -5.15672623
C       11.07642804      -3.49049501      -6.21858443
O       10.23618360      -3.56939759      -7.10865211
C       12.22477668      -4.37625403      -6.19774047
C       12.52227655      -5.46528832      -6.99629526
C       13.75900998      -5.97894903      -6.54279899
C       14.15069703      -5.16723280      -5.50301681
O       13.22350042      -4.19515047      -5.27694739
H        1.36370984      -0.70819725      -2.26062908
H        2.78502299       0.67686208      -3.67374254
H        2.01599982       4.06861192      -1.11255191
H        0.59008628       2.65357112       0.32077686
H        4.16364308       3.86786359      -4.95079184
H        3.33348314       2.32629536      -5.00072399
H        9.39161917       0.74934937      -2.52922893
H       11.09504640      -0.90514153      -3.13404448
H        8.63868442      -2.17620437      -6.45881458
H        6.96850391      -0.54843206      -5.85333497
H       11.83631386      -2.63830539      -4.53057112
H       11.90088568      -5.83558680      -7.80137412
H       14.29412082      -6.83396630      -6.93201045
C       15.37093703      -5.32004752      -4.75384260
C       16.39288803      -5.44802986      -4.12640919
Br      18.04529636      -5.65496647      -3.11190244
C       -0.88142158      -0.88142158      -0.88142158
C       -1.75577575      -0.29606695      -1.79534464
C       -2.56841366      -1.10093439      -2.60344906
C       -2.49924645      -2.49082765      -2.49898803
C       -1.61796592      -3.06490309      -1.57661533
C       -0.80956667      -2.26586388      -0.76629139
O       -3.22532978      -3.40033996      -3.21412721
C       -4.16413367      -2.93312175      -4.18512470
C       -5.45292694      -2.58738337      -3.53365415
O       -5.90573428      -3.41677340      -2.54955504
N       -7.14009235      -2.91112625      -2.14098408
C       -7.32135314      -1.83626021      -2.92584430
N       -6.27784020      -1.60433996      -3.80112950
C       -8.51464458      -0.99749998      -2.91458873
C       -9.54893960      -1.18449764      -1.98849503
C      -10.69705733      -0.37647612      -2.02592398
C      -10.83500326       0.62821569      -2.99264983
C       -9.79775742       0.81869558      -3.90596302
C       -8.65177536       0.01792044      -3.86665304
N      -12.01480502       1.40129524      -2.98244547
C      -12.36116142       2.41692484      -3.86028088
O      -11.70527171       2.76602245      -4.83618885
C      -13.60529455       3.08159723      -3.52256580
C      -14.18919864       4.20814715      -4.07223199
C      -15.39182073       4.43235942      -3.36339863
C      -15.47875740       3.42372067      -2.43144432
O      -14.39559384       2.60143715      -2.51114065
H       -1.81692902       0.78574502      -1.88495766
H       -3.24210231      -0.60142207      -3.29210323
H       -1.56446633      -4.14759536      -1.48510196
H       -0.13571306      -2.73335424      -0.05381324
H       -4.34061954      -3.76122060      -4.88045837
H       -3.76353599      -2.11006557      -4.78690093
H       -9.47579396      -1.96343671      -1.23096681
H      -11.47898529      -0.55334723      -1.29161683
H       -9.83554352       1.58603587      -4.67178698
H       -7.86851749       0.19622812      -4.60111745
H      -12.69067336       1.21212183      -2.25002807
H      -13.77439189       4.79165139      -4.88393250
H      -16.10365091       5.23099093      -3.51950500
C      -16.56261278       3.25616727      -1.49828658
C      -17.47034167       3.11584129      -0.71676698
Br     -18.93806251       2.88894606       0.54688412
C       -0.88142158       0.88142158       0.88142158
C       -1.56361304       1.96075754       0.32281677
C       -2.37058832       2.77373632       1.12847247
C       -2.49766224       2.50035171       2.49104818
C       -1.80636626       1.41444107       3.03867701
C       -0.99756503       0.60446315       2.23969376
O       -3.24205260       3.19973227       3.39801208
C       -3.98997169       4.33504263       2.95736580
C       -3.12270807       5.53949721       2.91175918
O       -2.22980213       5.71378269       3.92847790
N       -1.58221083       6.92518619       3.68480565
C       -2.15511938       7.37291759       2.55542067
N       -3.11651821       6.52238278       2.04440866
C       -1.84900348       8.65234585       1.92538396
C       -0.83206493       9.49194579       2.39792156
C       -0.58457312      10.73070983       1.78417448
C       -1.35233864      11.15528950       0.69180926
C       -2.35662905      10.31125647       0.21713934
C       -2.60084445       9.07527010       0.82439342
N       -1.05947502      12.41274959       0.12373064
C       -1.71020438      13.02858199      -0.93426890
O       -2.69870772      12.58900301      -1.51227262
C       -1.10542757      14.28240115      -1.34156561
C       -1.38533044      15.09375039      -2.42579733
C       -0.49291815      16.18831421      -2.35837242
C        0.27083250      15.98862813      -1.23131458
O       -0.08461877      14.82997058      -0.60929202
H       -1.47183365       2.18201437      -0.73770636
H       -2.87336524       3.60951062       0.65275174
H       -1.89538439       1.20024901       4.10153024
H       -0.46644666      -0.23088092       2.68731479
H       -4.77693845       4.50487681       3.70048326
H       -4.50286584       4.15048877       2.00714789
H       -0.22436554       9.19455928       3.25127265
H        0.21204572      11.35520943       2.18078564
H       -2.97908977      10.57379487      -0.63159000
H       -3.39757092       8.44969032       0.42614558
H       -0.28108889      12.93214860       0.51534211
H       -2.14334799      14.89588844      -3.17256342
H       -0.42237194      17.01788704      -3.04809400
C        1.30450189      16.87822723      -0.76899324
C        2.17020001      17.62326648      -0.38179911
Br       3.56996064      18.82793193       0.24426104
C        0.88142158      -0.88142158       0.88142158
C        0.30698370      -1.64183139       1.89837225
C        1.11235921      -2.44916629       2.71127161
C        2.49093677      -2.49810754       2.50001782
C        3.05428368      -1.72880681       1.47639385
C        2.25533295      -0.91948403       0.66690496
O        3.39964367      -3.23259741       3.20755586
C        2.94350218      -4.05578722       4.28309071
C        2.79821450      -3.25236221       5.52338775
O        3.76010323      -2.32220509       5.78975440
N        3.42776609      -1.74762792       7.01680867
C        2.30827543      -2.39466119       7.38052102
N        1.88621069      -3.33579473       6.46130424
C        1.60418189      -2.18235970       8.64019170
C        1.98562751      -1.18709042       9.54921433
C        1.30260781      -1.03049300      10.76635662
C        0.23079363      -1.86903330      11.09961046
C       -0.15319659      -2.85156512      10.18665633
C        0.52305199      -3.00533775       8.97211822
N       -0.40979400      -1.66594143      12.33980782
C       -1.46214410      -2.39557063      12.87109094
O       -1.96909257      -3.38726034      12.35727035
C       -1.95760331      -1.87352925      14.13033717
C       -3.06371635      -2.24412211      14.87287773
C       -3.09229754      -1.40483109      16.01032639
C       -1.99628502      -0.57979793      15.90296814
O       -1.30344204      -0.84767898      14.76106038
H       -0.76604105      -1.61126750       2.07091522
H        0.62321782      -3.01460759       3.49780219
H        4.12916295      -1.75685588       1.31114482
H        2.71501646      -0.32711489      -0.11925081
H        3.71584244      -4.81425732       4.45219876
H        2.02962153      -4.60317626       4.02770470
H        2.82091357      -0.52581915       9.32346475
H        1.62936674      -0.24795638      11.44662624
H       -0.98149626      -3.52561908      10.37717182
H        0.19471651      -3.78800549       8.29068481
H       -0.08216072      -0.89662523      12.91411510
H       -3.76185319      -3.02580111      14.60272508
H       -3.82304178      -1.40808302      16.80712373
C       -1.62821964       0.42920454      16.86215628
C       -1.31996488       1.27424411      17.66547635
Br      -0.82154300       2.64060162      18.96437696
