53
Properties=species:S:1:pos:R:3 pbc="F F F"
C        0.00000000       0.00000000       0.00000000
C        0.88171208       0.88171208      -0.88171208
C        0.57603968       2.22971892      -1.03283448
C        1.38723560       3.01985299      -1.84096619
F        1.07265001       4.31694758      -1.99133348
C        2.52741406       2.51060259      -2.48202538
N        3.23376559       3.31631320      -3.39701847
C        2.78288991       1.13584714      -2.34787545
Br       4.25260770       0.32377315      -3.23944876
C        1.97833223       0.32587881      -1.53815250
H       -0.28356747       2.67623898      -0.54419627
H        4.18798123       3.00650316      -3.55936223
H        3.15979295       4.31072803      -3.19215675
H        2.20133453      -0.73259683      -1.42949687
C       -0.88171208      -0.88171208      -0.88171208
C       -0.65204530      -2.25206399      -0.93448380
C       -1.46211218      -3.04208450      -1.74385810
F       -1.22044659      -4.36218395      -1.79830054
C       -2.52902361      -2.50784469      -2.48317373
N       -3.22934786      -3.32615227      -3.39159713
C       -2.70602307      -1.11483070      -2.44575874
Br      -4.06781697      -0.27516372      -3.47284891
C       -1.90143132      -0.30456127      -1.63637096
H        0.14812535      -2.71686506      -0.36812806
H       -4.15135096      -2.97176471      -3.63073096
H       -3.22938743      -4.30854330      -3.12474700
H       -2.06422973       0.76984355      -1.60384839
C       -0.88171208       0.88171208       0.88171208
C       -2.16048133       0.45532020       1.22279156
C       -2.95280351       1.27033121       2.02492005
F       -4.19179232       0.85443505       2.33470370
C       -2.49197820       2.49494142       2.53312241
N       -3.37948313       3.34390578       3.22370835
C       -1.21426926       2.91962313       2.13272012
Br      -0.52247139       4.59904883       2.69430938
C       -0.40278620       2.11242442       1.32715294
H       -2.55714367      -0.49121659       0.87094069
H       -2.91258618       4.02423189       3.81702855
H       -4.12707854       2.83959013       3.69600907
H        0.59144560       2.44743932       1.04224086
C        0.88171208      -0.88171208       0.88171208
C        2.22667374      -0.56826520       1.04365415
C        3.01781808      -1.38204040       1.84819629
F        4.31891591      -1.07767524       1.98433992
C        2.49625888      -2.49079397       2.53298918
N        3.36571182      -3.35988234       3.22150310
C        1.14591740      -2.80859971       2.31209540
Br       0.35644482      -4.33601984       3.12336494
C        0.33466403      -2.00076125       1.50693827
H        2.67437946       0.28831489       0.55080320
H        2.90204235      -3.92128842       3.93051585
H        4.20786451      -2.89717808       3.55763515
H       -0.71357601      -2.24989548       1.36191510
