74
Properties=species:S:1:pos:R:3 pbc="F F F"
C        1.79161611       1.79161611      -1.79161611
C        1.48594371       3.13962295      -1.94273850
C        2.29713962       3.92975701      -2.75087021
F        1.98255404       5.22685160      -2.90123751
C        3.43731809       3.42050662      -3.39192941
N        4.14366961       4.22621722      -4.30692249
C        3.69279394       2.04575116      -3.25777948
Br       5.16251172       1.23367717      -4.14935278
C        2.88823626       1.23578284      -2.44805653
H        0.62633655       3.58614300      -1.45410029
H        5.09788526       3.91640719      -4.46926625
H        4.06969698       5.22063206      -4.10206078
H        3.11123855       0.17730720      -2.33940089
C       -1.79161611      -1.79161611      -1.79161611
C       -1.47669878      -3.13598401      -1.95562237
C       -2.28803394      -3.92614309      -2.76358982
F       -1.96459250      -5.21953808      -2.92651257
C       -3.43709394      -3.42085927      -3.39180089
N       -4.14430473      -4.22494747      -4.30755713
C       -3.70215751      -2.04922096      -3.24494611
Br      -5.18503890      -1.24176403      -4.11873875
C       -2.89760142      -1.23929298      -2.43518123
H       -0.60986916      -3.57955107      -1.47715962
H       -5.10213037      -3.92134873      -4.46007961
H       -4.06103308      -5.22031170      -4.11104502
H       -3.12794214      -0.18346430      -2.31654021
C       -1.79161611       1.79161611       1.79161611
C       -3.04001688       1.33206652       2.19622176
C       -3.83284060       2.14741757       2.99750868
F       -5.04305566       1.69861550       3.36897199
C       -3.40049295       3.40639982       3.44286134
N       -4.29372439       4.24795857       4.13512637
C       -2.15525117       3.86195585       2.97911756
Br      -1.50753001       5.58557533       3.45243634
C       -1.34371450       3.05497529       2.17338583
H       -3.41311741       0.35903667       1.89442576
H       -3.83159068       4.96685584       4.68511218
H       -5.00394619       3.73494819       4.65349543
H       -0.37394633       3.41501799       1.83898233
C        1.79161611      -1.79161611       1.79161611
C        3.10976708      -1.42259353       2.03594456
C        3.90140895      -2.23698881       2.83936909
F        5.17749681      -1.87782975       3.05531659
C        3.40412638      -3.40256141       3.44306631
N        4.28223713      -4.26253639       4.13203582
C        2.08365495      -3.77322073       3.13944889
Br       1.33413212      -5.37566375       3.83574580
C        1.27228128      -2.96568109       2.33411325
H        3.53687371      -0.52179367       1.60791247
H        3.81397176      -4.88053091       4.78905603
H        5.08292560      -3.77750221       4.53196199
H        0.24608266      -3.25717094       2.12469305
C       -0.00445707       0.01189536      -1.78238275
H       -0.66409135       0.67374010      -2.43557963
H        0.65740317      -0.63156657      -2.45157240
C       -0.90989263      -0.90692880      -0.91072765
C        0.90977584       0.90977584      -0.90977584
C       -0.00465871       1.77757030       0.00794375
H       -0.66225468       2.44313916      -0.64384735
H        0.64322798       2.43503045       0.67728295
C       -1.78241447       0.00034974      -0.00472694
H       -2.45427497      -0.65498947       0.64260836
H       -2.43311707       0.67328779      -0.65473579
C       -0.91132561       0.90220522       0.91563759
C       -0.01476271      -0.02253852       1.78660255
H       -0.67934791      -0.69751639       2.42135241
H        0.63392994       0.61504881       2.47327442
C        0.01484550      -1.77751727      -0.01636693
H        0.67870853      -2.42144646      -0.68295456
H       -0.62264859      -2.45592969       0.64226336
C        1.78714474       0.01002794       0.00389507
H        2.44202412       0.67113390       0.66197326
H        2.45385902      -0.65136977      -0.64189061
C        0.91606151      -0.90478549       0.90901405
