194
Properties=species:S:1:pos:R:3 pbc="F F F"
C        1.79168717       1.79168717      -1.79168717
C        3.16702099       1.56808512      -1.83957916
C        3.97374439       2.36503553      -2.65871779
C        3.40531156       3.38297753      -3.43557556
C        2.02183709       3.60754164      -3.36037693
C        1.21471319       2.81157945      -2.54428084
C        4.21292611       4.19070900      -4.34780802
N        4.08420978       5.52534172      -4.37070882
N        4.87234661       5.93235866      -5.39211011
C        4.92825837       7.36294384      -5.67533758
C        3.89395917       7.79046700      -6.68474097
C        2.58725580       8.10157287      -6.27266289
C        1.62498833       8.51222223      -7.19919001
C        1.95582647       8.60605760      -8.54918475
C        3.24409431       8.28872742      -8.96041840
F        3.56234427       8.37615192     -10.25838907
C        4.21236437       7.88571906      -8.04643967
C        5.52323102       4.89800613      -6.03384737
C        6.32015386       5.01590318      -7.25705182
C        7.45954562       5.82643976      -7.32717299
C        8.17672991       5.94066632      -8.52344746
C        7.77700160       5.21806378      -9.64586855
C        6.66534803       4.38337840      -9.58444043
C        5.93800017       4.29026661      -8.39619764
C        5.13329046       3.76162008      -5.34192673
Cl       5.58574874       2.15060185      -5.67128572
H        3.62024174       0.77593876      -1.24948935
H        5.04498419       2.18094149      -2.68176783
H        1.56635514       4.39915292      -3.95316947
H        0.14387153       2.99286285      -2.51029517
H        5.93669613       7.62472905      -6.00336801
H        4.77620396       7.89312584      -4.72610622
H        2.31202310       8.02369876      -5.22114457
H        0.61912297       8.75627585      -6.86668484
H        1.22004443       8.92193301      -9.28159669
H        5.20701758       7.65358129      -8.41511066
H        7.80931612       6.37402497      -6.45514072
H        9.04804871       6.58896889      -8.56786223
H        6.35365849       3.80331991     -10.44957492
H        5.06452662       3.64109742      -8.36885556
C        8.51863613       5.33086869     -10.87503626
C        9.13975506       5.42534279     -11.90446423
Br      10.14405182       5.57809943     -13.56896217
C       -1.79168717      -1.79168717      -1.79168717
C       -1.23418468      -2.88153125      -2.45896934
C       -2.04381978      -3.69910024      -3.25457769
C       -3.41332256      -3.43125700      -3.37928510
C       -3.95451920      -2.31850797      -2.71672849
C       -3.14780505      -1.50219098      -1.92057744
C       -4.29605247      -4.30299632      -4.15239434
N       -5.17358249      -3.78345052      -5.02322731
N       -5.89529725      -4.84065857      -5.46085956
C       -6.95736901      -4.58148599      -6.42768479
C       -8.28559506      -4.31730087      -5.76627122
C       -8.61283884      -3.02439566      -5.32425706
C       -9.84745244      -2.76662962      -4.72231850
C      -10.76398699      -3.80088754      -4.54619430
C      -10.43841525      -5.08210873      -4.97271614
F      -11.31786241      -6.07754960      -4.80147325
C       -9.21550448      -5.34935029      -5.57966833
C       -5.50604420      -6.04311243      -4.90592789
C       -6.19228918      -7.32598103      -5.07483866
C       -6.36298968      -7.91830362      -6.33186506
C       -7.05402977      -9.12867189      -6.45814203
C       -7.54813454      -9.76924605      -5.32355334
C       -7.35968800      -9.21013610      -4.06334275
C       -6.69071939      -7.99042228      -3.94332276
C       -4.44168576      -5.71475652      -4.08039499
Cl      -3.54028848      -6.77395105      -3.09339678
H       -0.17522781      -3.10662513      -2.36381691
H       -1.59326934      -4.54251594      -3.77190823
H       -5.01583421      -2.09362663      -2.80921669
H       -3.58865581      -0.65328320      -1.40509055
H       -7.01981157      -5.41948287      -7.12549875
H       -6.65191398      -3.71494973      -7.02857230
H       -7.90180971      -2.20780619      -5.44725054
H      -10.09118665      -1.76049115      -4.39040584
H      -11.72635199      -3.61786352      -4.07935862
H       -9.00872758      -6.36568741      -5.90129454
H       -5.95766878      -7.45332551      -7.22748752
H       -7.19542202      -9.56657497      -7.44288284
H       -7.72755432      -9.70893608      -3.17006292
H       -6.56175449      -7.56173097      -2.95099414
C       -8.25381359     -11.01779662      -5.45293087
C       -8.84481980     -12.06345772      -5.56128455
Br      -9.80042685     -13.75420329      -5.73648329
C       -1.79168717       1.79168717       1.79168717
C       -1.23087361       2.87159686       2.47221479
C       -2.04033160       3.68927789       3.26788823
C       -3.41290333       3.43152894       3.37943237
C       -3.95763411       2.32854598       2.70357557
C       -3.15108246       1.51214485       1.90734616
C       -4.29483475       4.30414855       4.15245983
N       -5.18352049       3.78474717       5.01199266
N       -5.90024544       4.84421288       5.45235706
C       -6.97214822       4.58589029       6.40850128
C       -8.29705782       4.33777306       5.73433626
C       -8.63107908       3.05114540       5.27926708
C       -9.86281189       2.80821240       4.66537626
C      -10.76956362       3.85122999       4.49027521
C      -10.43718274       5.12631222       4.92974517
F      -11.30720043       6.13017612       4.75950871
C       -9.21711652       5.37877455       5.54863203
C       -5.49688068       6.04789280       4.91031104
C       -6.17415387       7.33487367       5.08408132
C       -6.35025835       7.91845241       6.34444761
C       -7.03256323       9.13331853       6.47496193
C       -7.51231868       9.78695154       5.34166371
C       -7.31817706       9.23646530       4.07852449
C       -6.65806784       8.01238255       3.95401403
C       -4.42854847       5.71757283       4.09071597
Cl      -3.51072734       6.77732695       3.11958203
H       -0.16940970       3.08887400       2.38738615
H       -1.58722752       4.52484349       3.79562250
H       -5.02143276       2.11152182       2.78572296
H       -3.59454645       0.67099427       1.38148883
H       -7.03350720       5.41873873       7.11254726
H       -6.67852636       3.71211812       7.00479153
H       -7.92764313       2.22787073       5.40135257
H      -10.11191861       1.80677395       4.32339108
H      -11.72955860       3.67974797       4.01426756
H       -9.00479968       6.39079247       5.88011739
H       -5.95593911       7.44303963       7.23950307
H       -7.17839794       9.56443548       7.46204640
H       -7.67479172       9.74537600       3.18638560
H       -6.52452437       7.59063818       2.95931704
C       -8.20898027      11.04009102       5.47546979
C       -8.79243436      12.08959533       5.58753238
Br      -9.73583027      13.78655504       5.76872811
C        1.79168717      -1.79168717       1.79168717
C        3.17648607      -1.63193659       1.76626262
C        3.98424565      -2.42834353       2.58490853
C        3.40776970      -3.38164951       3.43444545
C        2.01350273      -3.54321412       3.43303880
C        1.20544356      -2.74763578       2.61749413
C        4.22036469      -4.18462223       4.34645621
N        4.03231429      -5.50917979       4.43876623
N        4.84890281      -5.90641476       5.44149782
C        4.85312142      -7.32367431       5.78974407
C        3.84972840      -7.65506512       6.86437363
C        2.51207485      -7.92196496       6.52745176
C        1.57737495      -8.24372100       7.51530461
C        1.96756282      -8.29171543       8.85179057
C        3.28706377      -8.01776463       9.18841173
F        3.66250310      -8.06112849      10.47325368
C        4.22800368      -7.70334829       8.21317114
C        5.57600341      -4.87613923       6.00294189
C        6.42412661      -4.97612218       7.19286007
C        7.52751812      -5.83600836       7.24963188
C        8.29495955      -5.92975360       8.41613053
C        7.98245783      -5.13861830       9.51985780
C        6.90825694      -4.25556228       9.46934763
C        6.13009639      -4.18203627       8.31233176
C        5.20562311      -3.75511014       5.27610402
Cl       5.74607101      -2.15417365       5.50739165
H        3.63663080      -0.88995005       1.11908900
H        5.06263024      -2.29465289       2.55041038
H        1.55125485      -4.28443605       4.08298663
H        0.12706293      -2.87903826       2.64092836
H        5.86309421      -7.61802949       6.08366948
H        4.63204490      -7.88863341       4.87475770
H        2.19087007      -7.87897105       5.48702531
H        0.54674790      -8.45443191       7.24090384
H        1.25391618      -8.53852622       9.63113172
H        5.24862450      -7.50234803       8.52473701
H        7.81006387      -6.43873690       6.38968104
H        9.13701449      -6.61615194       8.45171339
H        6.66485773      -3.62255957      10.31913601
H        5.28674442      -3.49389396       8.29384121
C        8.77592865      -5.23061406      10.71799838
C        9.44046045      -5.30766051      11.72144111
Br      10.51495218      -5.43223810      13.34392315
C       -0.00445707       0.01189536      -1.78238275
H       -0.66409135       0.67374010      -2.43557963
H        0.65740317      -0.63156657      -2.45157240
C       -0.90989263      -0.90692880      -0.91072765
C        0.90977584       0.90977584      -0.90977584
C       -0.00465871       1.77757030       0.00794375
H       -0.66225468       2.44313916      -0.64384735
H        0.64322798       2.43503045       0.67728295
C       -1.78241447       0.00034974      -0.00472694
H       -2.45427497      -0.65498947       0.64260836
H       -2.43311707       0.67328779      -0.65473579
C       -0.91132561       0.90220522       0.91563759
C       -0.01476271      -0.02253852       1.78660255
H       -0.67934791      -0.69751639       2.42135241
H        0.63392994       0.61504881       2.47327442
C        0.01484550      -1.77751727      -0.01636693
H        0.67870853      -2.42144646      -0.68295456
H       -0.62264859      -2.45592969       0.64226336
C        1.78714474       0.01002794       0.00389507
H        2.44202412       0.67113390       0.66197326
H        2.45385902      -0.65136977      -0.64189061
C        0.91606151      -0.90478549       0.90901405
