186
Properties=species:S:1:pos:R:3 pbc="F F F"
C        1.79168717       1.79168717      -1.79168717
C        3.16702099       1.56808512      -1.83957916
C        3.97374439       2.36503553      -2.65871779
C        3.40531156       3.38297753      -3.43557556
C        2.02183709       3.60754164      -3.36037693
C        1.21471319       2.81157945      -2.54428084
C        4.21292611       4.19070900      -4.34780802
N        4.08420978       5.52534172      -4.37070882
N        4.87234661       5.93235866      -5.39211011
C        4.92825837       7.36294384      -5.67533758
C        3.89395917       7.79046700      -6.68474097
C        2.58725580       8.10157287      -6.27266289
C        1.62498833       8.51222223      -7.19919001
C        1.95582647       8.60605760      -8.54918475
C        3.24409431       8.28872742      -8.96041840
F        3.56234427       8.37615192     -10.25838907
C        4.21236437       7.88571906      -8.04643967
C        5.52323102       4.89800613      -6.03384737
C        6.32015386       5.01590318      -7.25705182
C        7.45954562       5.82643976      -7.32717299
C        8.17672991       5.94066632      -8.52344746
C        7.77700160       5.21806378      -9.64586855
Br       8.74988065       5.36604169     -11.25829551
C        6.66534803       4.38337840      -9.58444043
C        5.93800017       4.29026661      -8.39619764
C        5.13329046       3.76162008      -5.34192673
Cl       5.58574874       2.15060185      -5.67128572
H        3.62024174       0.77593876      -1.24948935
H        5.04498419       2.18094149      -2.68176783
H        1.56635514       4.39915292      -3.95316947
H        0.14387153       2.99286285      -2.51029517
H        5.93669613       7.62472905      -6.00336801
H        4.77620396       7.89312584      -4.72610622
H        2.31202310       8.02369876      -5.22114457
H        0.61912297       8.75627585      -6.86668484
H        1.22004443       8.92193301      -9.28159669
H        5.20701758       7.65358129      -8.41511066
H        7.80931612       6.37402497      -6.45514072
H        9.04804871       6.58896889      -8.56786223
H        6.35365849       3.80331991     -10.44957492
H        5.06452662       3.64109742      -8.36885556
C       -1.79168717      -1.79168717      -1.79168717
C       -1.22938409      -2.86688857      -2.47841262
C       -2.03875882      -3.68462150      -3.27411740
C       -3.41270624      -3.43165500      -3.37950341
C       -3.95903155      -2.33330210      -2.69742201
C       -3.15255617      -1.51686216      -1.90115513
C       -4.29426023      -4.30468575      -4.15249715
N       -5.18814968      -3.78541452      -5.00669612
N       -5.90253418      -4.84591831      -5.44836289
C       -6.97901872      -4.58805162      -6.39946945
C       -8.30229183      -4.34750142      -5.71937390
C       -8.63944013      -3.06387497      -5.25817647
C       -9.86974655      -2.82792846      -4.63872555
C      -10.77188561      -3.87502703      -4.46415618
C      -10.43636216      -5.14717331      -4.90970467
F      -11.30193390      -6.15496122      -4.73999014
C       -9.21770512      -5.39267434      -5.53414364
C       -5.49257904      -6.05009865      -4.91240684
C       -6.16564376      -7.33897103      -5.08849408
C       -6.34431795      -7.91845192      -6.35038850
C       -7.02252257      -9.13539289      -6.48292822
C       -7.49551106      -9.79511110      -5.35031177
Br      -8.40384232     -11.44176044      -5.52861508
C       -7.29866459      -9.24866438      -4.08583788
C       -6.64271283      -8.02256833      -3.95918326
C       -4.42240386      -5.71882938      -4.09560403
Cl      -3.49691736      -6.77875643      -3.13196252
H       -0.16679398      -3.08046158      -2.39841428
H       -1.58450701      -4.51646697      -3.80671953
H       -5.02394524      -2.12000103      -2.77473127
H       -3.59719623      -0.67938818      -1.37044514
H       -7.03990079      -5.41846352      -7.10642888
H       -6.69095762      -3.71092920      -6.99354919
H       -7.93958378      -2.23748648      -5.37979617
H      -10.12133360      -1.82873869      -4.29201136
H      -11.73071077      -3.70898069      -3.98388266
H       -9.00282771      -6.40262244      -5.87025939
H       -5.95518931      -7.43817418      -7.24511832
H       -7.17046755      -9.56333087      -7.47108141
H       -7.64997381      -9.76228571      -3.19429379
H       -6.50699472      -7.60407809      -2.96340679
C       -1.79168717       1.79168717       1.79168717
C       -1.22545266       2.85362106       2.49561155
C       -2.03459509       3.67149628       3.29140634
C       -3.41215618       3.43200075       3.37970772
C       -3.96270641       2.34670011       2.68034914
C       -3.15644351       1.53015432       1.88397563
C       -4.29265006       4.30616981       4.15262326
N       -5.20092469       3.78747119       4.99186444
N       -5.90879550       4.85079380       5.43722608
C       -6.99793231       4.59438870       6.37421877
C       -8.31637814       4.37500091       5.67778809
C       -8.66205431       3.09991839       5.19951887
C       -9.88813762       2.88351411       4.56474883
C      -10.77735804       3.94187707       4.39183371
C      -10.43326112       5.20566185       4.85431716
F      -11.28638154       6.22428049       4.68622323
C       -9.21877862       5.43169068       5.49405380
C       -5.48059529       6.05611516       4.91837408
C       -6.14194643       7.35012596       5.10103647
C       -6.32789031       7.91821368       6.36705437
C       -6.99467333       9.14081172       6.50535863
C       -7.44870573       9.81733085       5.37489735
Br      -8.34157241      11.47154665       5.56109879
C       -7.24421819       9.28210824       4.10684042
C       -6.59984379       8.05053010       3.97409054
C       -4.40536137       5.72210938       4.10936652
Cl      -3.45867009       6.78221592       3.16675031
H       -0.15989587       3.05675807       2.42901590
H       -1.57731764       4.49286000       3.83751587
H       -5.03055520       2.14388779       2.74423455
H       -3.60418927       0.70304114       1.33979914
H       -7.05759267       5.41794639       7.08925412
H       -6.72538260       3.70808960       6.96196381
H       -7.97222120       2.26493748       5.31970775
H      -10.14649416       1.89073139       4.20485810
H      -11.73273145       3.79103270       3.89980998
H       -8.99690271       6.43573024       5.84307657
H       -5.95330981       7.42449531       7.26067669
H       -7.14858079       9.55991594       7.49638310
H       -7.58066787       9.80873271       3.21715274
H       -6.45798214       7.64108189       2.97541556
C        1.79168717      -1.79168717       1.79168717
C        3.17134824      -1.59175204       1.81158500
C        3.97846279      -2.38848877       2.63054616
C        3.40623906      -3.38245619       3.43516940
C        2.01793797      -3.58368511       3.38813259
C        1.21045983      -2.78787607       2.57223757
C        4.21571017      -4.18836148       4.34737148
N        4.06414416      -5.51989374       4.39622241
N        4.86307763      -5.92295720       5.41078055
C        4.89903241      -7.34914809       5.71835929
C        3.87552407      -7.74054431       6.75309877
C        2.55647480      -8.03553237       6.36948439
C        1.60379804      -8.41278632       7.31981620
C        1.95687899      -8.48890551       8.66528432
C        3.25759209      -8.18738230       9.04826574
F        3.59727643      -8.25777706      10.34183177
C        4.21635913      -7.81765456       8.11050941
C        5.54321589      -4.88928710       6.02258154
C        6.35956446      -4.99995390       7.23359050
C        7.48570034      -5.82925695       7.29820107
C        8.22192074      -5.93530788       8.48361507
C        7.85487008      -5.18623589       9.59982796
Br       8.85350994      -5.32330616      11.19740173
C        6.75703974      -4.33313256       9.54299454
C        6.01043305      -4.24786910       8.36616227
C        5.16093994      -3.75840376       5.31749357
Cl       5.64722995      -2.15017436       5.61023201
H        3.62777231      -0.81820330       1.19969423
H        5.05299321      -2.22308061       2.63161969
H        1.55931075      -4.35661157       4.00275522
H        0.13618222      -2.95067240       2.56017492
H        5.90841544      -7.62304164       6.03333611
H        4.72090707      -7.89303344       4.78149550
H        2.26400602      -7.97114735       5.32171306
H        0.58807753      -8.64469850       7.00930761
H        1.22882316      -8.77882690       9.41592407
H        5.22130547      -7.59682406       8.45757999
H        7.81031196      -6.39810776       6.43006208
H        9.08244197      -6.59811351       8.52432434
H        6.47094156      -3.73261548      10.40299627
H        5.14807616      -3.58386084       8.34254260
C       -0.00445707       0.01189536      -1.78238275
H       -0.66409135       0.67374010      -2.43557963
H        0.65740317      -0.63156657      -2.45157240
C       -0.90989263      -0.90692880      -0.91072765
C        0.90977584       0.90977584      -0.90977584
C       -0.00465871       1.77757030       0.00794375
H       -0.66225468       2.44313916      -0.64384735
H        0.64322798       2.43503045       0.67728295
C       -1.78241447       0.00034974      -0.00472694
H       -2.45427497      -0.65498947       0.64260836
H       -2.43311707       0.67328779      -0.65473579
C       -0.91132561       0.90220522       0.91563759
C       -0.01476271      -0.02253852       1.78660255
H       -0.67934791      -0.69751639       2.42135241
H        0.63392994       0.61504881       2.47327442
C        0.01484550      -1.77751727      -0.01636693
H        0.67870853      -2.42144646      -0.68295456
H       -0.62264859      -2.45592969       0.64226336
C        1.78714474       0.01002794       0.00389507
H        2.44202412       0.67113390       0.66197326
H        2.45385902      -0.65136977      -0.64189061
C        0.91606151      -0.90478549       0.90901405
