194
Properties=species:S:1:pos:R:3 pbc="F F F"
C        1.79281331       1.79281331      -1.79281331
C        3.17685022       1.67577623      -1.71806041
C        3.97090074       2.49386904      -2.51429324
C        3.37626391       3.43079866      -3.36552965
C        1.97844075       3.54973844      -3.46149988
C        1.19529456       2.70402715      -2.66856783
C        1.39726098       4.49977908      -4.42373445
N        0.38265536       5.41390055      -4.19999217
N        0.20767747       6.27278676      -5.22771695
C        0.98441188       5.81692358      -6.21494287
C        0.94599682       6.47200448      -7.52651779
C       -0.27122554       6.99119434      -8.00157439
C       -0.35055305       7.60876589      -9.25172670
C        0.78903887       7.71944166     -10.04353946
C        2.00447096       7.22643787      -9.57211144
C        2.09123128       6.61436962      -8.31904716
C        1.72771423       4.69272749      -5.76285418
Cl       2.79128926       3.74069220      -6.70015050
C       -0.47350490       5.60936541      -3.03019228
C       -1.93063202       5.38083606      -3.37094465
C       -2.50382211       4.10039422      -3.37333748
C       -3.83436590       3.91268460      -3.76125504
C       -4.61148867       5.00053225      -4.15612444
C       -4.05972430       6.27814165      -4.15226461
C       -2.73508645       6.45918050      -3.75973671
F       -2.23660813       7.70328050      -3.75259085
H        3.64214686       0.95105764      -1.05474203
H        5.05419634       2.40274678      -2.48078592
H        4.02627540       4.06030647      -3.97240209
H        0.11831833       2.72676294      -2.73762406
H       -1.16972173       6.91581632      -7.38998464
H       -1.30208592       8.00199394      -9.60169402
H        0.72217359       8.19601279     -11.01777565
H        3.05743898       6.26668490      -7.96516432
H       -0.30581913       6.63615306      -2.68296577
H       -0.15616715       4.95297312      -2.21843739
H       -1.92957369       3.22654499      -3.08356709
H       -4.26271466       2.91250925      -3.76390083
H       -5.64239278       4.85074736      -4.46702000
H       -4.64901507       7.13748389      -4.45819671
C        3.18519566       7.34989833     -10.38712475
C        4.17405260       7.45329647     -11.06969840
Br       5.77295063       7.62048251     -12.17336225
C       -1.79281331      -1.79281331      -1.79281331
C       -1.69252100      -1.70102587      -3.17713999
C       -2.51058592      -2.49753430      -3.97094280
C       -3.43091333      -3.36615682      -3.37552206
C       -3.53270921      -3.47933706      -1.97763280
C       -2.68711707      -2.68568836      -1.19508410
C       -4.46504113      -4.45894107      -1.39679232
N       -5.36993949      -4.25722750      -0.36938109
N       -6.21504696      -5.29665904      -0.19647518
C       -5.75695632      -6.26971380      -0.98960821
C       -6.39663189      -7.58907065      -0.95881656
C       -6.89639751      -8.08383184       0.25868616
C       -7.49879595      -9.34180781       0.33066423
C       -7.61355108     -10.12185929      -0.81660962
C       -7.13990641      -9.63104700      -2.03206686
C       -6.54312887      -8.37013826      -2.11138092
C       -4.64656456      -5.79635164      -1.74037970
Cl      -3.69622426      -6.71053576      -2.82537194
C       -5.56882554      -3.09953559       0.50230834
C       -5.31974007      -3.45415175       1.95274314
C       -4.03286058      -3.44835410       2.51130509
C       -3.82550697      -3.84916168       3.83509491
C       -4.89981608      -4.26527858       4.61992663
C       -6.18363429      -4.26981998       4.08277231
C       -6.38430252      -3.86439312       2.76486488
F       -7.63404153      -3.86586892       2.28064724
H       -0.98076099      -1.02419929      -3.64298626
H       -2.43228620      -2.45069622      -5.05474662
H       -4.06091321      -3.97279960      -4.02527114
H       -2.69670846      -2.76721431      -0.11878256
H       -6.81765749      -7.48164982       1.16322808
H       -7.87708397      -9.70703649       1.28251842
H       -8.07824062     -11.10219574      -0.75552568
H       -6.21059106      -8.00135069      -3.07734644
H       -6.60134280      -2.76223411       0.35027720
H       -4.92536909      -2.27675438       0.18688011
H       -3.16900179      -3.14207963       1.93054303
H       -2.82051663      -3.84518978       4.25201098
H       -4.73469434      -4.58611007       5.64542983
H       -7.03263201      -4.59225824       4.67822472
C       -7.26765336     -10.43397607      -3.22058931
C       -7.37464143     -11.10642916      -4.21597687
Br      -7.54763209     -12.19372894      -5.82543436
C       -1.79281331       1.79281331       1.79281331
C       -2.73642627       2.62900423       1.20525636
C       -3.52388065       3.43888008       2.01630228
C       -3.35119488       3.41738078       3.40401656
C       -2.41113017       2.56655366       4.01199525
C       -1.64250260       1.74359226       3.18179469
C       -2.31487278       2.52580680       5.48009495
N       -1.16793112       2.57577961       6.25283733
N       -1.42386296       2.71223917       7.57207905
C       -2.74650764       2.57034032       7.69943037
C       -3.34720623       2.56001477       9.03729809
C       -2.64253785       1.97493855      10.10406680
C       -3.18797438       1.93287015      11.38909500
C       -4.44592815       2.47987108      11.62622075
C       -5.14298632       3.08061345      10.57942049
C       -4.59895858       3.13222955       9.29345992
C       -3.34108578       2.42586297       6.41634714
Cl      -4.99417861       2.14383960       6.09411375
C        0.24037236       2.54799632       5.85842883
C        0.94787058       1.33826576       6.43075350
C        0.91474355       0.08659228       5.79806086
C        1.51828975      -1.02916398       6.38702747
C        2.16092525      -0.91245917       7.61855244
C        2.20880521       0.32394576       8.25554142
C        1.61007548       1.43283829       7.66106795
F        1.68560378       2.61292981       8.29193717
H       -2.87053042       2.65070253       0.12671358
H       -4.27840400       4.08538358       1.57394146
H       -3.98023188       4.06763545       4.01111662
H       -0.93800004       1.04224851       3.60245678
H       -1.65495256       1.54761483       9.93351185
H       -2.62753553       1.47392444      12.20014207
H       -4.86907376       2.44060111      12.62628717
H       -5.15181801       3.63328901       8.50418118
H        0.69045022       3.47851131       6.22523861
H        0.32652506       2.57079443       4.77097398
H        0.41527771      -0.04850275       4.84431884
H        1.47857114      -1.99463781       5.88690439
H        2.62044370      -1.78337998       8.07919827
H        2.70338348       0.43398077       9.21606824
C       -6.43995283       3.65519988      10.82706603
C       -7.52616228       4.13641601      11.03446917
Br      -9.28247110       4.91450180      11.36982250
C        1.79281331      -1.79281331       1.79281331
C        1.56924338      -3.16502274       1.83642074
C        2.36809219      -3.95693676       2.65403407
C        3.37163555      -3.36969551       3.43126116
C        3.61776145      -1.98599279       3.38592484
C        2.81806688      -1.20795547       2.54186718
C        4.73119470      -1.42295319       4.16662664
N        4.71055613      -0.30456872       4.98142322
N        5.83860646      -0.15947394       5.71010078
C        6.68817897      -1.08114031       5.24695905
C        8.06108964      -1.12242008       5.76100937
C        8.70824235       0.08059560       6.09389645
C       10.02032913       0.08281671       6.57242711
C       10.70297905      -1.12027687       6.72876406
C       10.06246738      -2.31933235       6.42122053
C        8.74737027      -2.32804107       5.94923672
C        6.04414835      -1.87775155       4.26139600
Cl       6.76150874      -3.12666606       3.34395715
C        3.65966999       0.68996380       5.19634660
C        4.11559984       2.07110095       4.77664980
C        4.03401825       2.51119130       3.44708264
C        4.52856755       3.76598941       3.07699560
C        5.11535803       4.59874050       4.02855049
C        5.19729524       4.17972193       5.35310865
C        4.69803741       2.93061191       5.71640526
F        4.77831151       2.56134376       7.00229546
H        0.78764055      -3.62400399       1.23630199
H        2.21788348      -5.03367247       2.68617310
H        3.97672995      -4.01699657       4.06525744
H        2.99530082      -0.14813191       2.43927260
H        8.18388597       1.02893822       5.98113148
H       10.50367558       1.02434446       6.82227092
H       11.72546317      -1.11401989       7.09647898
H        8.26370176      -3.27915159       5.74643484
H        3.41242591       0.66372346       6.26459726
H        2.75338481       0.40036963       4.66222818
H        3.59472174       1.88869800       2.67451465
H        4.46369559       4.09049900       2.04049884
H        5.50828095       5.56939215       3.73648579
H        5.65246986       4.81388415       6.10807983
C       10.76540189      -3.56439137       6.59242549
C       11.35410954      -4.60712829       6.73580964
Br      12.30600001      -6.29314570       6.96764968
C       -0.00445707       0.01189536      -1.78238275
H       -0.66409135       0.67374010      -2.43557963
H        0.65740317      -0.63156657      -2.45157240
C       -0.90989263      -0.90692880      -0.91072765
C        0.90977584       0.90977584      -0.90977584
C       -0.00465871       1.77757030       0.00794375
H       -0.66225468       2.44313916      -0.64384735
H        0.64322798       2.43503045       0.67728295
C       -1.78241447       0.00034974      -0.00472694
H       -2.45427497      -0.65498947       0.64260836
H       -2.43311707       0.67328779      -0.65473579
C       -0.91132561       0.90220522       0.91563759
C       -0.01476271      -0.02253852       1.78660255
H       -0.67934791      -0.69751639       2.42135241
H        0.63392994       0.61504881       2.47327442
C        0.01484550      -1.77751727      -0.01636693
H        0.67870853      -2.42144646      -0.68295456
H       -0.62264859      -2.45592969       0.64226336
C        1.78714474       0.01002794       0.00389507
H        2.44202412       0.67113390       0.66197326
H        2.45385902      -0.65136977      -0.64189061
C        0.91606151      -0.90478549       0.90901405
