186
Properties=species:S:1:pos:R:3 pbc="F F F"
C        1.79281331       1.79281331      -1.79281331
C        3.17685022       1.67577623      -1.71806041
C        3.97090074       2.49386904      -2.51429324
C        3.37626391       3.43079866      -3.36552965
C        1.97844075       3.54973844      -3.46149988
C        1.19529456       2.70402715      -2.66856783
C        1.39726098       4.49977908      -4.42373445
N        0.38265536       5.41390055      -4.19999217
N        0.20767747       6.27278676      -5.22771695
C        0.98441188       5.81692358      -6.21494287
C        0.94599682       6.47200448      -7.52651779
C       -0.27122554       6.99119434      -8.00157439
C       -0.35055305       7.60876589      -9.25172670
C        0.78903887       7.71944166     -10.04353946
C        2.00447096       7.22643787      -9.57211144
Br       3.55522485       7.38858980     -10.64254306
C        2.09123128       6.61436962      -8.31904716
C        1.72771423       4.69272749      -5.76285418
Cl       2.79128926       3.74069220      -6.70015050
C       -0.47350490       5.60936541      -3.03019228
C       -1.93063202       5.38083606      -3.37094465
C       -2.50382211       4.10039422      -3.37333748
C       -3.83436590       3.91268460      -3.76125504
C       -4.61148867       5.00053225      -4.15612444
C       -4.05972430       6.27814165      -4.15226461
C       -2.73508645       6.45918050      -3.75973671
F       -2.23660813       7.70328050      -3.75259085
H        3.64214686       0.95105764      -1.05474203
H        5.05419634       2.40274678      -2.48078592
H        4.02627540       4.06030647      -3.97240209
H        0.11831833       2.72676294      -2.73762406
H       -1.16972173       6.91581632      -7.38998464
H       -1.30208592       8.00199394      -9.60169402
H        0.72217359       8.19601279     -11.01777565
H        3.05743898       6.26668490      -7.96516432
H       -0.30581913       6.63615306      -2.68296577
H       -0.15616715       4.95297312      -2.21843739
H       -1.92957369       3.22654499      -3.08356709
H       -4.26271466       2.91250925      -3.76390083
H       -5.64239278       4.85074736      -4.46702000
H       -4.64901507       7.13748389      -4.45819671
C       -1.79281331      -1.79281331      -1.79281331
C       -2.06868440      -1.40280707      -3.09919538
C       -2.88489751      -2.20534476      -3.88882075
C       -3.42980277      -3.38076050      -3.36202895
C       -3.14761152      -3.79410803      -2.04795952
C       -2.30764743      -2.98501230      -1.27522981
C       -3.68532574      -5.07464791      -1.56080087
N       -4.32035311      -5.32019667      -0.35599828
N       -4.86737887      -6.55331857      -0.28748374
C       -4.44071796      -7.19820006      -1.37736031
C       -4.77342540      -8.61535268      -1.55574101
C       -4.83711103      -9.45480468      -0.42962749
C       -5.13638067     -10.81266110      -0.56089777
C       -5.38050127     -11.34972830      -1.82179042
C       -5.34021449     -10.52107075      -2.94173502
Br      -5.68474559     -11.24835359      -4.65325853
C       -5.04871784      -9.16039913      -2.81553109
C       -3.67626974      -6.31718333      -2.18984283
Cl      -2.87001277      -6.72254593      -3.63957326
C       -4.51883301      -4.45042303       0.80320326
C       -3.84289662      -5.01341017       2.03515811
C       -2.48445262      -4.79241232       2.30695535
C       -1.87096597      -5.38431981       3.41571204
C       -2.60409072      -6.20882758       4.26775029
C       -3.95444186      -6.43215139       4.01591129
C       -4.56103313      -5.83535210       2.91255446
F       -5.86628522      -6.05771893       2.70474094
H       -1.64964551      -0.48791107      -3.51038996
H       -3.09606942      -1.92373387      -4.91792575
H       -4.06951384      -3.98470265      -4.00476746
H       -2.02642703      -3.28044682      -0.27583148
H       -4.65316889      -9.04649276       0.56358243
H       -5.17873658     -11.44537198       0.32250652
H       -5.60794977     -12.40769150      -1.92032077
H       -5.05394891      -8.53313565      -3.70220364
H       -5.60198179      -4.36362936       0.95231144
H       -4.15540038      -3.44500115       0.58515817
H       -1.87645169      -4.16631316       1.66222647
H       -0.81488643      -5.20838743       3.60957842
H       -2.12251809      -6.67599811       5.12314163
H       -4.54140273      -7.07270602       4.66744321
C       -1.79281331       1.79281331       1.79281331
C       -2.55475012       2.80223304       1.21370370
C       -3.34267524       3.60914098       2.02724679
C       -3.35045668       3.41050552       3.41163002
C       -2.59624186       2.38481937       4.00861784
C       -1.82591637       1.56954388       3.17242928
C       -2.69167999       2.16786974       5.46122479
N       -1.65340908       1.98537043       6.35776857
N       -2.05726482       2.00432575       7.64659061
C       -3.39289533       2.01752860       7.60585440
C       -4.15537042       1.93334232       8.85580635
C       -3.66141179       1.14792212       9.91220929
C       -4.36629422       1.03138286      11.11226245
C       -5.57481037       1.70307708      11.27413254
C       -6.06203813       2.50073615      10.24024599
Br      -7.69748028       3.42357625      10.46530118
C       -5.35735571       2.62696847       9.04032388
C       -3.83278184       2.09422160       6.25629245
Cl      -5.45293517       2.06153422       5.71766257
C       -0.21859071       1.82403411       6.12342797
C        0.27067373       0.47803184       6.61379058
C        0.17772653      -0.68049432       5.82813044
C        0.57296651      -1.92258903       6.33512928
C        1.06362775      -2.02695399       7.63574977
C        1.16885999      -0.88582486       8.42536682
C        0.77829428       0.34951299       7.91261205
F        0.90523701       1.43232739       8.69217284
H       -2.54803588       2.96151745       0.13839320
H       -3.95788270       4.39140005       1.58844628
H       -3.97433922       4.06291449       4.02173024
H       -1.26341345       0.74199539       3.57729649
H       -2.71437628       0.62092487       9.80077808
H       -3.96799337       0.41719827      11.91641041
H       -6.12279539       1.60577532      12.20739133
H       -5.74621830       3.27926096       8.26380894
H        0.28293520       2.64308452       6.65315039
H        0.00646107       1.95753527       5.06416916
H       -0.20903231      -0.64351491       4.81502100
H        0.48884033      -2.81306525       5.71560101
H        1.36060011      -2.99512705       8.03110174
H        1.54713334      -0.94764598       9.44144485
C        1.79281331      -1.79281331       1.79281331
C        1.39260093      -3.09238706       2.08569887
C        2.19540503      -3.88187740       2.90178059
C        3.38144105      -3.36154194       3.42960923
C        3.80500538      -2.05457963       3.13009405
C        2.99523630      -1.28215399       2.29049924
C        5.09568748      -1.57500355       3.65008350
N        5.35961631      -0.36646391       4.27046785
N        6.59880554      -0.30491962       4.80445601
C        7.22846136      -1.40543354       4.38238343
C        8.64704357      -1.59474926       4.70272626
C        9.49827860      -0.47656655       4.74669805
C       10.85770350      -0.61851284       5.03372318
C       11.38460527      -1.88225317       5.28516155
C       10.54446070      -2.99414301       5.26441655
Br      11.25807779      -4.70938331       5.61889661
C        9.18224864      -2.85715672       4.98524270
C        6.33173616      -2.21658401       3.63497573
Cl       6.71448756      -3.67828803       2.83935637
C        4.50348441       0.80335782       4.46592620
C        5.07189003       2.02278185       3.77204050
C        4.83994540       2.28323498       2.41319918
C        5.43666914       3.37980456       1.78270917
C        6.27696997       4.23076352       2.49896157
C        6.51135781       3.99016254       3.84948670
C        5.90972714       2.89897279       4.47307641
F        6.14314287       2.70195291       5.77807326
H        0.46947824      -3.49850539       1.67996291
H        1.90568977      -4.90593834       3.12610092
H        3.98535661      -4.00391998       4.06970737
H        3.29777233      -0.28863422       1.99629877
H        9.09805667       0.51882136       4.55684392
H       11.49958388       0.25885409       5.06087226
H       12.44377025      -1.98915910       5.50303268
H        8.54626171      -3.73737206       5.00565444
H        4.42909235       0.96412271       5.54833006
H        3.49233032       0.59183545       4.11474848
H        4.20135979       1.63881409       1.81799269
H        5.25205314       3.56489511       0.72653740
H        6.74777180       5.07656423       2.00416701
H        7.16425339       4.64103049       4.42344263
C       -0.00445707       0.01189536      -1.78238275
H       -0.66409135       0.67374010      -2.43557963
H        0.65740317      -0.63156657      -2.45157240
C       -0.90989263      -0.90692880      -0.91072765
C        0.90977584       0.90977584      -0.90977584
C       -0.00465871       1.77757030       0.00794375
H       -0.66225468       2.44313916      -0.64384735
H        0.64322798       2.43503045       0.67728295
C       -1.78241447       0.00034974      -0.00472694
H       -2.45427497      -0.65498947       0.64260836
H       -2.43311707       0.67328779      -0.65473579
C       -0.91132561       0.90220522       0.91563759
C       -0.01476271      -0.02253852       1.78660255
H       -0.67934791      -0.69751639       2.42135241
H        0.63392994       0.61504881       2.47327442
C        0.01484550      -1.77751727      -0.01636693
H        0.67870853      -2.42144646      -0.68295456
H       -0.62264859      -2.45592969       0.64226336
C        1.78714474       0.01002794       0.00389507
H        2.44202412       0.67113390       0.66197326
H        2.45385902      -0.65136977      -0.64189061
C        0.91606151      -0.90478549       0.90901405
