194
Properties=species:S:1:pos:R:3 pbc="F F F"
F        0.46841742      12.54287749      -1.42565658
C        1.17644743      11.78585470      -0.57816657
C        1.89647744      12.40237053       0.44341143
C        2.62399154      11.61388607       1.32671597
C        2.67117968      10.22745466       1.14565204
C        1.98073032       9.59680798       0.08171997
C        1.17514001      10.39715065      -0.72997974
C        2.00833445       8.09172159      -0.00160567
N        2.30618536       7.35150144      -1.24336609
N        2.32041057       6.00117603      -1.06048500
C        2.52658283       5.46272369      -2.26800763
C        2.57595593       4.00135252      -2.43072668
C        3.41502322       3.39532896      -3.37610137
C        3.42139671       2.00695387      -3.54908946
C        2.60363110       1.20431025      -2.75857951
C        1.79203002       1.79203002      -1.79203002
C        1.77381539       3.17889067      -1.62305983
C        2.63742442       6.49078098      -3.23776009
Cl       2.83273875       6.28815466      -4.92284093
C        2.53406849       7.69862723      -2.55856532
C        2.59494150       9.03629572      -3.14790197
C        3.60795499       9.93873423      -2.80280566
C        3.64846461      11.20856884      -3.38794685
C        2.69958713      11.57370599      -4.34361400
C        1.71567753      10.66309063      -4.71752065
C        1.65704026       9.40350887      -4.12699207
H        1.86590238      13.47958546       0.54826874
H        3.14771632      12.07292196       2.15748142
H        3.23501301       9.63468461       1.86202109
H        0.55377226       9.97365666      -1.50780544
H        1.03941987       7.71569657       0.34451674
H        2.76975563       7.72052728       0.70348367
H        4.08940982       3.98856723      -3.99035702
H        4.06818468       1.55667647      -4.29826576
H        2.61195461       0.12653059      -2.89825407
H        1.13241167       3.62389306      -0.86562809
H        4.36320833       9.66919342      -2.06771360
H        4.41902869      11.91642651      -3.09308395
H        2.73779230      12.56406490      -4.79052962
H        0.88334838       8.70393384      -4.43042096
C        0.75054170      11.02432430      -5.72331539
C       -0.05775957      11.32685749      -6.56566848
Br      -1.36471435      11.81602808      -7.92768219
F        1.27195022     -12.01215656      -3.69674516
C        0.62706016     -11.54874118      -2.61878769
C        0.22245130     -12.44584171      -1.63204614
C       -0.43949720     -11.96136677      -0.51029767
C       -0.74049476     -10.59853082      -0.41395671
C       -0.37486166      -9.68663480      -1.43432188
C        0.37825136     -10.17911983      -2.50140194
C       -0.65715754      -8.22069335      -1.22381082
N       -1.30020028      -7.36268287      -2.23816973
N       -1.49415948      -6.08649615      -1.80141598
C       -2.00974054      -5.41191282      -2.83566079
C       -2.32129230      -3.97982265      -2.70692018
C       -3.41074193      -3.40214406      -3.37356755
C       -3.67097401      -2.03093316      -3.27553287
C       -2.85599453      -1.22347546      -2.48705088
C       -1.79203002      -1.79203002      -1.79203002
C       -1.52133465      -3.15887749      -1.89555375
C       -2.13820657      -6.27445736      -3.95330156
Cl      -2.68080160      -5.84706102      -5.51587174
C       -1.71630886      -7.53292364      -3.54202853
C       -1.67457053      -8.74643589      -4.35813277
C       -2.44637205      -9.86861031      -4.03451253
C       -2.39491092     -11.01320125      -4.83686813
C       -1.59974043     -11.03388264      -5.98328405
C       -0.86292361      -9.90474611      -6.32861909
C       -0.89416561      -8.76749005      -5.52588554
H        0.44359221     -13.50017928      -1.74063203
H       -0.71539270     -12.63812458       0.29036041
H       -1.24453762     -10.24586180       0.48272289
H        0.76447953      -9.52661256      -3.27310132
H        0.28748349      -7.72691716      -0.97116603
H       -1.31946283      -8.11851711      -0.34881931
H       -4.08659157      -4.00750019      -3.97424231
H       -4.51197627      -1.59872139      -3.81242925
H       -3.06230620      -0.15880583      -2.41562725
H       -0.68481470      -3.58832025      -1.34879787
H       -3.08079722      -9.86850515      -3.15081298
H       -2.97241796     -11.89268696      -4.56343422
H       -1.56420985     -11.92932620      -6.59885077
H       -0.31394224      -7.89406732      -5.80969361
C       -0.06217875      -9.91056535      -7.52543729
C        0.60844508      -9.91543896      -8.52777253
Br       1.69278709      -9.92331917     -10.14846384
F       -5.17912082      -2.07551157      11.33334225
C       -3.99347897      -1.51555496      11.06254469
C       -3.08095295      -1.32375722      12.09824082
C       -1.84783601      -0.74984861      11.81317424
C       -1.56307751      -0.32206972      10.51197451
C       -2.50304639      -0.46992450       9.46269644
C       -3.69256914      -1.14106625       9.75076751
C       -2.09548019      -0.06316425       8.06934577
N       -2.93093506       0.77902911       7.19108871
N       -2.33111548       1.05252872       5.99842740
C       -3.22076868       1.75206316       5.28448231
C       -2.89486484       2.19370184       3.91946845
C       -3.37302320       3.40731733       3.40611302
C       -3.08985594       3.79550276       2.09208134
C       -2.30192380       2.98281948       1.28177758
C       -1.79203002       1.79203002       1.79203002
C       -2.08119991       1.39460034       3.09996564
C       -4.41159065       1.91913444       6.03524040
Cl      -5.84901735       2.68103166       5.51368534
C       -4.19538225       1.32381578       7.27206300
C       -5.14681340       1.25125685       8.38106894
C       -4.87728270       1.85939459       9.61281760
C       -5.80813779       1.78279824      10.65404426
C       -7.02559241       1.12836764      10.46294706
C       -7.31212749       0.55803305       9.22612828
C       -6.38385265       0.61385112       8.18983743
H       -3.33367070      -1.63916818      13.10271658
H       -1.10690179      -0.64067294      12.59692802
H       -0.58400176       0.10830805      10.31536672
H       -4.41918347      -1.36511046       8.98116133
H       -1.88675040      -0.97428398       7.49813328
H       -1.15047558       0.50002487       8.13629880
H       -3.96642816       4.08176152       4.02014439
H       -3.48257033       4.73351590       1.70704069
H       -2.08625521       3.28897322       0.26151085
H       -1.67795899       0.46015724       3.48381659
H       -3.93843110       2.38342368       9.77826058
H       -5.58018352       2.23007093      11.61828469
H       -7.74134452       1.07170544      11.27933686
H       -6.62304090       0.16447021       7.23019207
C       -8.57822129      -0.09450420       9.01446430
C       -9.63857484      -0.64100415       8.83719572
Br     -11.35307685      -1.52464835       8.55056742
F        6.04829542       2.43172035      10.82037643
C        4.81429605       1.93668292      10.66285557
C        3.96308710       1.87206138      11.76441082
C        2.67997894       1.36542013      11.59660283
C        2.28220182       0.87675114      10.34753162
C        3.15706284       0.89492017       9.23367567
C        4.40307683       1.50149719       9.40069076
C        2.63213542       0.42962875       7.89915504
N        3.35215299      -0.52028730       7.02861259
N        2.65763483      -0.82736144       5.89707534
C        3.45161844      -1.62852931       5.17716640
C        3.00771610      -2.13225032       3.86806872
C        3.37308770      -3.40509145       3.40827440
C        2.97852335      -3.85524839       2.14366830
C        2.19064603      -3.04407663       1.33179820
C        1.79203002      -1.79203002       1.79203002
C        2.19274367      -1.33345416       3.04956805
C        4.67727537      -1.82760847       5.86108165
Cl       6.02570204      -2.71554126       5.30249106
C        4.58242222      -1.14253571       7.06630310
C        5.60881314      -1.06440858       8.10591747
C        5.38485468      -1.57443259       9.39020761
C        6.38646168      -1.49516591      10.36335272
C        7.62707966      -0.93723199      10.05259547
C        7.86525326      -0.46631094       8.76472462
C        6.86785329      -0.52475024       7.79493768
H        4.30197977       2.23233222      12.72757154
H        1.98792077       1.35571324      12.43094934
H        1.26701971       0.50154476      10.24220158
H        5.08904776       1.62743642       8.57362302
H        2.44324149       1.31498046       7.28233867
H        1.66021797      -0.06354116       8.06304011
H        3.96278156      -4.07789530       4.02765720
H        3.28475352      -4.83985274       1.79852065
H        1.88816778      -3.39860885       0.34996264
H        1.87572727      -0.35177304       3.39443250
H        4.42813642      -2.02282873       9.64915021
H        6.19606452      -1.86461676      11.36785786
H        8.39815221      -0.87751544      10.81671917
H        7.06987777      -0.15366513       6.79416028
C        9.15280493       0.08518013       8.43055659
C       10.23112946       0.54705391       8.15069086
Br      11.97468902       1.29386474       7.69817164
C       -0.00445707       0.01189536      -1.78238275
H       -0.66409135       0.67374010      -2.43557963
H        0.65740317      -0.63156657      -2.45157240
C       -0.90989263      -0.90692880      -0.91072765
C        0.90977584       0.90977584      -0.90977584
C       -0.00465871       1.77757030       0.00794375
H       -0.66225468       2.44313916      -0.64384735
H        0.64322798       2.43503045       0.67728295
C       -1.78241447       0.00034974      -0.00472694
H       -2.45427497      -0.65498947       0.64260836
H       -2.43311707       0.67328779      -0.65473579
C       -0.91132561       0.90220522       0.91563759
C       -0.01476271      -0.02253852       1.78660255
H       -0.67934791      -0.69751639       2.42135241
H        0.63392994       0.61504881       2.47327442
C        0.01484550      -1.77751727      -0.01636693
H        0.67870853      -2.42144646      -0.68295456
H       -0.62264859      -2.45592969       0.64226336
C        1.78714474       0.01002794       0.00389507
H        2.44202412       0.67113390       0.66197326
H        2.45385902      -0.65136977      -0.64189061
C        0.91606151      -0.90478549       0.90901405
