186
Properties=species:S:1:pos:R:3 pbc="F F F"
F        0.46841742      12.54287749      -1.42565658
C        1.17644743      11.78585470      -0.57816657
C        1.89647744      12.40237053       0.44341143
C        2.62399154      11.61388607       1.32671597
C        2.67117968      10.22745466       1.14565204
C        1.98073032       9.59680798       0.08171997
C        1.17514001      10.39715065      -0.72997974
C        2.00833445       8.09172159      -0.00160567
N        2.30618536       7.35150144      -1.24336609
N        2.32041057       6.00117603      -1.06048500
C        2.52658283       5.46272369      -2.26800763
C        2.57595593       4.00135252      -2.43072668
C        3.41502322       3.39532896      -3.37610137
C        3.42139671       2.00695387      -3.54908946
C        2.60363110       1.20431025      -2.75857951
C        1.79203002       1.79203002      -1.79203002
C        1.77381539       3.17889067      -1.62305983
C        2.63742442       6.49078098      -3.23776009
Cl       2.83273875       6.28815466      -4.92284093
C        2.53406849       7.69862723      -2.55856532
C        2.59494150       9.03629572      -3.14790197
C        3.60795499       9.93873423      -2.80280566
C        3.64846461      11.20856884      -3.38794685
C        2.69958713      11.57370599      -4.34361400
C        1.71567753      10.66309063      -4.71752065
Br       0.44725100      11.13784077      -6.03938301
C        1.65704026       9.40350887      -4.12699207
H        1.86590238      13.47958546       0.54826874
H        3.14771632      12.07292196       2.15748142
H        3.23501301       9.63468461       1.86202109
H        0.55377226       9.97365666      -1.50780544
H        1.03941987       7.71569657       0.34451674
H        2.76975563       7.72052728       0.70348367
H        4.08940982       3.98856723      -3.99035702
H        4.06818468       1.55667647      -4.29826576
H        2.61195461       0.12653059      -2.89825407
H        1.13241167       3.62389306      -0.86562809
H        4.36320833       9.66919342      -2.06771360
H        4.41902869      11.91642651      -3.09308395
H        2.73779230      12.56406490      -4.79052962
H        0.88334838       8.70393384      -4.43042096
F        1.94015068     -11.48299830      -4.89410389
C        1.36134639     -11.17510985      -3.72670523
C        1.12823229     -12.18672319      -2.79694565
C        0.53479102     -11.86326006      -1.58269260
C        0.12914944     -10.54754725      -1.33458449
C        0.31920853      -9.52202379      -2.29300307
C        1.00885860      -9.84959744      -3.46153157
C       -0.06602647      -8.11200744      -1.92362780
N       -0.87143548      -7.23438198      -2.79523543
N       -1.13181693      -6.02363817      -2.22661651
C       -1.79701920      -5.31441132      -3.14588364
C       -2.21600921      -3.93373885      -2.85828708
C       -3.40801207      -3.40537751      -3.37306397
C       -3.77376920      -2.07770462      -3.12596621
C       -2.96061692      -1.26793102      -2.33797292
C       -1.79203002      -1.79203002      -1.79203002
C       -1.41677584      -3.11393267      -2.04505738
C       -1.95510730      -6.08687877      -4.32397942
Cl      -2.67526377      -5.58040163      -5.78806895
C       -1.39114602      -7.33101158      -4.06910344
C       -1.32243111      -8.46146227      -4.99524581
C       -1.96239475      -9.67409221      -4.71300792
C       -1.88862185     -10.73643742      -5.61992103
C       -1.20480412     -10.58530736      -6.82679565
C       -0.60216045      -9.36718023      -7.12694814
Br       0.29598079      -9.14286014      -8.77759542
C       -0.65521618      -8.31026058      -6.22206444
H        1.42725199     -13.20279716      -3.02167392
H        0.39327459     -12.62846361      -0.82796785
H       -0.31738649     -10.32097131      -0.36931873
H        1.26458720      -9.10064134      -4.19918021
H        0.85255631      -7.55571695      -1.70743905
H       -0.65025472      -8.14681407      -0.98973045
H       -4.08286239      -4.01769680      -3.96777488
H       -4.69484339      -1.68155718      -3.54672634
H       -3.24926618      -0.23706289      -2.15041020
H       -0.49946572      -3.50859000      -1.61387710
H       -2.50946524      -9.80829924      -3.78235087
H       -2.36117791     -11.68595223      -5.38140900
H       -1.15065040     -11.41788155      -7.52385488
H       -0.18041543      -7.36562416      -6.47166358
F       -7.95855448      -2.89481665       9.37321367
C       -6.65939688      -2.58451740       9.46558921
C       -5.99247095      -2.80606917      10.66903476
C       -4.64207847      -2.49079221      10.75987538
C       -3.98883904      -1.90570649       9.66984975
C       -4.67062179      -1.63330761       8.45850416
C       -5.99822453      -2.05207984       8.35612572
C       -3.88269636      -1.07956687       7.29853221
N       -4.31969006       0.08193298       6.49942985
N       -3.41958529       0.42645722       5.53602909
C       -3.97301384       1.43367491       4.85062540
C       -3.26311630       2.03435770       3.71056113
C       -3.37429682       3.39959324       3.41256349
C       -2.72698667       3.94964021       2.30081317
C       -1.93848539       3.14224996       1.48578551
C       -1.79203002       1.79203002       1.79203002
C       -2.44538215       1.23568558       2.89469816
C       -5.25276981       1.72917224       5.38402344
Cl      -6.36213134       2.88701087       4.79459214
C       -5.44405020       0.88002486       6.46718598
C       -6.62298078       0.82444169       7.33171671
C       -6.53772949       1.11284829       8.69891710
C       -7.68205875       1.06128241       9.50163914
C       -8.92215030       0.75430483       8.94045199
C       -9.01541052       0.50687661       7.57400169
Br     -10.69949717       0.12566543       6.79931217
C       -7.87856390       0.53828252       6.77069477
H       -6.52538874      -3.23596136      11.50779172
H       -4.09598906      -2.70446566      11.67163347
H       -2.92825722      -1.68507771       9.76449702
H       -6.55534483      -1.95403157       7.43392109
H       -3.72094776      -1.89128010       6.58093203
H       -2.89096154      -0.77339786       7.66923557
H       -3.95736855       4.06652128       4.04444423
H       -2.83773328       5.00801677       2.07737687
H       -1.43900572       3.57483639       0.62289716
H       -2.32364406       0.17849945       3.11978930
H       -5.58200054       1.36468786       9.15342695
H       -7.60450004       1.25563510      10.56840401
H       -9.80528544       0.71384655       9.57325484
H       -7.96830618       0.34366389       5.70573310
F        7.01603419       2.72444402      10.14536133
C        5.74155186       2.31535077      10.11426761
C        4.97470038       2.39449306      11.27522923
C        3.64976601       1.97688647      11.23828210
C        3.12385675       1.43257405      10.06169960
C        3.90998893       1.30454922       8.89037863
C        5.20507234       1.82432745       8.92152551
C        3.25274676       0.78714487       7.63605982
N        3.83471264      -0.27453388       6.79180636
N        3.03558240      -0.60718495       5.73930426
C        3.71320652      -1.51588547       5.02822216
C        3.13576121      -2.07590319       3.79637073
C        3.37350625      -3.40241623       3.41053107
C        2.85233993      -3.90977686       2.21532325
C        2.06428181      -3.10043730       1.40180175
C        1.79203002      -1.79203002       1.79203002
C        2.31936936      -1.27726930       2.97912723
C        4.97035228      -1.75907164       5.63654158
Cl       6.20556758      -2.78502814       5.05313863
C        5.01692490      -0.98484709       6.78948905
C        6.12281093      -0.91181920       7.74450906
C        5.96211535      -1.31065933       9.07672020
C        7.03834744      -1.23932464       9.96730821
C        8.28804693      -0.80145948       9.52740072
C        8.45982740      -0.44285074       8.19361068
Br      10.16062983       0.11728448       7.58112943
C        7.38951623      -0.49355524       7.30446974
H        5.41104462       2.79529960      12.18147408
H        3.02464935       2.07947742      12.11798493
H        2.07950394       1.12962042      10.05779302
H        5.83295111       1.83831638       8.04059962
H        3.08059438       1.63828207       6.96828739
H        2.26364138       0.38269137       7.90584923
H        3.95956652      -4.07265609       4.03611146
H        3.06052121      -4.93695689       1.92564881
H        1.66313159      -3.49965014       0.47395754
H        2.10023144      -0.25219124       3.26951014
H        4.99858170      -1.66499250       9.43654115
H        6.89960806      -1.52080898      11.00812210
H        9.11762070      -0.74677895      10.22798717
H        7.54022075      -0.21107047       6.26641196
C       -0.00445707       0.01189536      -1.78238275
H       -0.66409135       0.67374010      -2.43557963
H        0.65740317      -0.63156657      -2.45157240
C       -0.90989263      -0.90692880      -0.91072765
C        0.90977584       0.90977584      -0.90977584
C       -0.00465871       1.77757030       0.00794375
H       -0.66225468       2.44313916      -0.64384735
H        0.64322798       2.43503045       0.67728295
C       -1.78241447       0.00034974      -0.00472694
H       -2.45427497      -0.65498947       0.64260836
H       -2.43311707       0.67328779      -0.65473579
C       -0.91132561       0.90220522       0.91563759
C       -0.01476271      -0.02253852       1.78660255
H       -0.67934791      -0.69751639       2.42135241
H        0.63392994       0.61504881       2.47327442
C        0.01484550      -1.77751727      -0.01636693
H        0.67870853      -2.42144646      -0.68295456
H       -0.62264859      -2.45592969       0.64226336
C        1.78714474       0.01002794       0.00389507
H        2.44202412       0.67113390       0.66197326
H        2.45385902      -0.65136977      -0.64189061
C        0.91606151      -0.90478549       0.90901405
