165
Properties=species:S:1:pos:R:3 pbc="F F F"
C        0.00000000       0.00000000       0.00000000
F       -0.44148660      11.63297347      -0.51575256
C        0.26654341      10.87595068       0.33173746
C        0.98657342      11.49246650       1.35331545
C        1.71408752      10.70398205       2.23662000
C        1.76127566       9.31755063       2.05555607
C        1.07082630       8.68690396       0.99162400
C        0.26523598       9.48724663       0.17992428
C        1.09843042       7.18181756       0.90829835
N        1.39628133       6.44159741      -0.33346207
N        1.41050655       5.09127201      -0.15058098
C        1.61667881       4.55281966      -1.35810361
C        1.66605191       3.09144850      -1.52082266
C        2.50511920       2.48542493      -2.46619735
C        2.51149268       1.09704985      -2.63918544
C        1.69372707       0.29440623      -1.84867549
C        0.88212600       0.88212600      -0.88212600
C        0.86391137       2.26898665      -0.71315580
C        1.72752039       5.58087696      -2.32785607
Cl       1.92283473       5.37825064      -4.01293691
C        1.62416447       6.78872320      -1.64866129
C        1.68503748       8.12639169      -2.23799794
C        2.69805097       9.02883021      -1.89290164
C        2.73856058      10.29866482      -2.47804282
C        1.78968311      10.66380196      -3.43370998
C        0.80577351       9.75318661      -3.80761663
Br      -0.46265303      10.22793674      -5.12947899
C        0.74713624       8.49360484      -3.21708805
H        0.95599836      12.56968144       1.45817276
H        2.23781230      11.16301794       3.06738544
H        2.32510899       8.72478059       2.77192512
H       -0.35613177       9.06375263      -0.59790141
H        0.12951585       6.80579255       1.25442077
H        1.85985161       6.81062326       1.61338769
H        3.17950579       3.07866320      -3.08045300
H        3.15828066       0.64677245      -3.38836173
H        1.70205059      -0.78337343      -1.98835005
H        0.22250765       2.71398903       0.04427594
H        3.45330431       8.75928940      -1.15780958
H        3.50912466      11.00652248      -2.18317992
H        1.82788828      11.65416088      -3.88062559
H       -0.02655565       7.79402981      -3.52051693
F       -5.86625082      -9.41339467       3.57240606
C       -6.27034199      -8.13717105       3.59675642
C       -7.49195984      -7.82312870       4.18936407
C       -7.90535284      -6.49672754       4.22063081
C       -7.12426445      -5.50943146       3.61042568
C       -5.90418668      -5.82627408       2.96435449
C       -5.45991057      -7.14764062       3.03499286
C       -5.07429487      -4.70002307       2.40236831
N       -4.50089074      -4.71279836       1.04234829
N       -3.83077708      -3.56459452       0.74301206
C       -3.30803580      -3.74391777      -0.47564850
C       -2.49346326      -2.68796225      -1.09689755
C       -2.50680724      -2.46857849      -2.48135574
C       -1.69570353      -1.48844002      -3.06358442
C       -0.87748485      -0.69729097      -2.26203296
C       -0.88212600      -0.88212600      -0.88212600
C       -1.68196189      -1.86709109      -0.29700083
C       -3.64600878      -5.03405988      -0.95618476
Cl      -3.14576088      -5.73798639      -2.43027501
C       -4.44554398      -5.62847584       0.01247085
C       -5.03646130      -6.96548861      -0.04747721
C       -6.42425936      -7.14906031      -0.04646313
C       -6.96362533      -8.43788413      -0.11375877
C       -6.12406114      -9.54774770      -0.21538621
C       -4.74503806      -9.36431054      -0.25722815
Br      -3.60120294     -10.86192052      -0.43163924
C       -4.19900770      -8.08626931      -0.17255212
H       -8.09206292      -8.60790075       4.63245664
H       -8.82783906      -6.22845168       4.72284595
H       -7.46487616      -4.47818784       3.66509954
H       -4.49841210      -7.44568074       2.63857056
H       -4.23053122      -4.53043751       3.08008110
H       -5.68535885      -3.78284111       2.41111279
H       -3.15601516      -3.04731731      -3.13528953
H       -1.70867873      -1.34356527      -4.14117084
H       -0.24871650       0.06171097      -2.72002167
H       -1.67290400      -2.00164113       0.78232439
H       -7.09586242      -6.29597186       0.02143100
H       -8.04137398      -8.57633323      -0.08111985
H       -6.55285483     -10.54562424      -0.26419568
H       -3.12063348      -7.95991583      -0.20744179
F        2.70733612       3.70248250      10.71209304
C        3.01247438       4.27992986       9.54330114
C        3.82423964       5.41269523       9.53726888
C        4.14620584       6.00539792       8.32225748
C        3.60847508       5.49655424       7.13519107
C        2.74439435       4.37416830       7.13633231
C        2.51797037       3.73442527       8.35610344
C        2.27056786       3.82991909       5.81259840
N        0.85956523       3.50612368       5.52478236
N        0.66885451       3.07503033       4.24618371
C       -0.62598737       2.75142918       4.15018553
C       -1.16747556       2.22202905       2.88881845
C       -2.47538103       2.50802162       2.47333883
C       -2.99154296       1.96403443       1.29215058
C       -2.19425785       1.14472035       0.49783059
C       -0.88212600       0.88212600       0.88212600
C       -0.36564466       1.41392672       2.06648244
C       -1.26827389       2.97374829       5.39423124
Cl      -2.89968799       2.63907359       5.77526069
C       -0.31052020       3.49619330       6.25483546
C       -0.51413293       3.88477835       7.65051584
C       -0.34036947       5.20878566       8.07062768
C       -0.55036345       5.55556111       9.40934366
C       -0.96605503       4.59207474      10.32906527
C       -1.17830057       3.28368813       9.90458805
Br      -1.77713307       1.97940508      11.13822455
C       -0.95424093       2.92581243       8.57777577
H        4.20776683       5.80423589      10.47103797
H        4.81788510       6.85586939       8.29546050
H        3.89119410       5.97079104       6.19836752
H        1.93837109       2.82319016       8.42070321
H        2.83546856       2.91558458       5.60077161
H        2.52862942       4.55864791       5.02706868
H       -3.11694161       3.16844435       3.05323604
H       -4.01366177       2.18533895       0.99441413
H       -2.60099608       0.72405757      -0.41802644
H        0.66053954       1.19765690       2.35510339
H       -0.02692741       5.97672530       7.36675057
H       -0.38369340       6.57884051       9.73629317
H       -1.12378592       4.87088733      11.36800150
H       -1.12529718       1.90053120       8.26216272
F        9.93403331       3.32824184       5.10144796
C        8.68767985       3.45165835       5.57473512
C        8.48122194       4.12998469       6.77448722
C        7.18580765       4.26382073       7.25946265
C        6.12069486       3.67066385       6.57323922
C        6.32701856       2.93897447       5.37806217
C        7.62131867       2.90525669       4.85649635
C        5.12322323       2.39943144       4.64815784
N        5.02490352       1.01089499       4.15733228
N        3.82360994       0.74344226       3.57219186
C        3.90228210      -0.51131749       3.11400249
C        2.76611615      -1.11326325       2.39894366
C        2.47014430      -2.47915509       2.50744209
C        1.41194813      -3.04655231       1.78922753
C        0.61976681      -2.24656372       0.97047826
C        0.88212600      -0.88212600       0.88212600
C        1.94462184      -0.31276671       1.58866526
C        5.18115358      -1.04833015       3.40676969
Cl       5.76958282      -2.58776706       2.95667239
C        5.87604908      -0.07339366       4.11210622
C        7.24049889      -0.17977216       4.62915606
C        7.50652490      -0.11142494       6.00183296
C        8.81945051      -0.22515265       6.47066507
C        9.86959620      -0.44020787       5.57739098
C        9.60192515      -0.54875751       4.21589408
Br      11.01619474      -0.87671605       3.00185191
C        8.30032778      -0.41872939       3.73877196
H        9.32423936       4.55849659       7.30176425
H        7.00196584       4.83244201       8.16392096
H        5.11640543       3.80606394       6.96762296
H        7.83846042       2.43808780       3.90514965
H        4.94198321       3.03737697       3.77628139
H        4.24619577       2.49749699       5.30838839
H        3.04885512      -3.12885737       3.16090951
H        1.20752862      -4.11108985       1.87479638
H       -0.20012322      -2.69308056       0.41406986
H        2.13908410       0.75434244       1.50747909
H        6.70033333       0.04517220       6.71524215
H        9.02374412      -0.14008555       7.53499740
H       10.88698880      -0.52434736       5.95133859
H        8.10792438      -0.50679850       2.67326823
