173
Properties=species:S:1:pos:R:3 pbc="F F F"
C        0.00000000       0.00000000       0.00000000
C        0.88287126       0.88287126      -0.88287126
C        1.06185397       2.22269641      -0.54513732
C        1.86604155       3.02466951      -1.34623525
C        2.49549521       2.47514445      -2.46560045
C        2.32075537       1.12342665      -2.82242741
C        1.48751828       0.33700771      -2.02159734
C        2.94867358       0.64257395      -4.06157688
C        3.08361235       1.35010357      -5.24926825
C        3.85527817       0.56189250      -6.12839988
N        4.17817191      -0.58671557      -5.53027277
N        3.58658056      -0.55796532      -4.31367669
C        3.79860601      -1.71834031      -3.44462684
C        3.90812414      -2.99968969      -4.24430056
C        5.17905522      -3.46935008      -4.59983837
F        6.27254071      -2.86238394      -4.11490993
C        5.35127174      -4.54479694      -5.46904412
C        4.23767788      -5.18751551      -5.99947237
C        2.96001154      -4.75514466      -5.64382205
C        2.79562584      -3.66670426      -4.77634194
Cl       1.18111564      -3.17367872      -4.40756215
C        4.31393534       0.86078399      -7.48763339
C        4.00812733       2.08313650      -8.10526506
C        4.45222331       2.35661181      -9.40246007
C        5.20589297       1.41470006     -10.09714852
C        5.51611151       0.19849911      -9.49238427
C        5.07698874      -0.07964992      -8.19852800
H        0.57394966       2.65044049       0.32630385
H        2.00147873       4.07695954      -1.10836902
H        3.12284588       3.12654759      -3.07203345
H        1.26271707      -0.69003817      -2.28776232
H        2.68902446       2.33793533      -5.43532966
H        2.98870980      -1.79666298      -2.72149304
H        4.71582843      -1.51781762      -2.87936569
H        6.35500883      -4.85590750      -5.74215496
H        4.36273044      -6.01402009      -6.69461607
H        2.09170717      -5.25728159      -6.06572832
H        3.42365461       2.83981509      -7.59123121
H        4.20790173       3.30781706      -9.86922064
H        5.54682698       1.63356008     -11.10566661
H        5.32934740      -1.03329676      -7.73737587
C        6.29505244      -0.77768954     -10.20925716
C        6.94741547      -1.59524753     -10.80963821
Br       8.00223132      -2.91716966     -11.78040359
C       -0.88287126      -0.88287126      -0.88287126
C       -0.83228884      -0.73052524      -2.26687363
C       -1.63301767      -1.53441631      -3.06951233
C       -2.46227436      -2.49242832      -2.48153743
C       -2.52762224      -2.65536973      -1.08361746
C       -1.73603863      -1.82090193      -0.28918277
C       -3.48734042      -3.62657040      -0.53891359
C       -4.75933551      -3.89601911      -1.02762955
C       -5.27834089      -4.97918954      -0.28804013
N       -4.38531931      -5.36298855       0.62657876
N       -3.33747099      -4.51484793       0.51002699
C       -2.20312455      -4.73307588       1.41130789
C       -2.65563136      -5.25576522       2.75866158
C       -2.65471652      -6.63839655       2.98356957
F       -2.12814406      -7.46176418       2.06484154
C       -3.20908446      -7.19899161       4.13255716
C       -3.77471558      -6.37334280       5.09842363
C       -3.76826580      -4.99110721       4.91068408
C       -3.21706751      -4.43600196       3.74780595
Cl      -3.27386356      -2.71753996       3.57640445
C       -6.56168486      -5.67243791      -0.42822994
C       -7.48701448      -5.29585050      -1.41366391
C       -8.70792840      -5.96571743      -1.53764936
C       -9.01886878      -7.01793689      -0.68093587
C       -8.10643246      -7.40054137       0.29997894
C       -6.88673093      -6.73705029       0.42791439
H       -0.18629281       0.01324718      -2.72504068
H       -1.62042231      -1.41609543      -4.15028955
H       -3.07510483      -3.11058727      -3.13573481
H       -1.79788682      -1.85557995       0.79302555
H       -5.23491840      -3.37936429      -1.84800675
H       -1.64287380      -3.80833808       1.53767202
H       -1.53956710      -5.44439136       0.90658195
H       -3.21464594      -8.27819043       4.25158008
H       -4.22805262      -6.80337666       5.98810286
H       -4.21703096      -4.34939912       5.66627618
H       -7.27547026      -4.48065404      -2.09857661
H       -9.41590831      -5.66343619      -2.30559493
H       -9.97030124      -7.53344008      -0.78231235
H       -6.18207840      -7.04874333       1.19739523
C       -8.42612473      -8.48828570       1.18779037
C       -8.69386701      -9.39927158       1.93133243
Br      -9.12678362     -10.87225870       3.13357706
C       -0.88287126       0.88287126       0.88287126
C       -0.96498810       0.61668015       2.24801945
C       -1.76563027       1.42039664       3.05091941
C       -2.46153920       2.49067955       2.48402135
C       -2.39203009       2.76978559       1.10479375
C       -1.60362333       1.93584491       0.30665509
C       -3.22019384       3.86103847       0.57159211
C       -4.50422854       4.20003486       0.97872077
C       -4.86889278       5.37976820       0.29690958
N       -3.87203803       5.75637599      -0.50668491
N       -2.90935396       4.81386018      -0.38092221
C       -1.68723900       5.00403237      -1.16637884
C       -1.97784942       5.66995563      -2.49507005
C       -1.84700388       7.06081237      -2.59827274
F       -1.33813851       7.75934223      -1.57241404
C       -2.25296251       7.75738175      -3.73482534
C       -2.79670265       7.06374246      -4.81081037
C       -2.91697585       5.67560719      -4.74389411
C       -2.51493255       4.98365534      -3.59332437
Cl      -2.72343985       3.26843810      -3.57687889
C       -6.10009099       6.16842123       0.39384049
C       -7.13460160       5.79612540       1.26580189
C       -8.30426565       6.55743306       1.34959648
C       -8.45461876       7.69771678       0.56540600
C       -7.43282337       8.07674640      -0.30257488
C       -6.26351110       7.32219076      -0.38983504
H       -0.42268056      -0.21458008       2.68998583
H       -1.85642115       1.21550510       4.11488104
H       -3.07753630       3.10549803       3.13839259
H       -1.56829621       2.06206882      -0.76992381
H       -5.08898489       3.66277587       1.71052869
H       -1.19377043       4.04719264      -1.32742321
H       -1.01534272       5.61245658      -0.55042279
H       -2.16197262       8.83903195      -3.75974828
H       -3.13527878       7.60118272      -5.69313508
H       -3.34823722       5.13768506      -5.58576838
H       -7.04910519       4.91355950       1.89203623
H       -9.09812495       6.25741788       2.02939660
H       -9.36704622       8.28414338       0.63486406
H       -5.47207107       7.63196355      -1.07060812
C       -7.58633008       9.25555016      -1.11526017
C       -7.71489195      10.24279831      -1.79588410
Br      -7.92276562      11.83909507      -2.89639544
C        0.88287126      -0.88287126       0.88287126
C        0.74352983      -2.26767057       0.81848730
C        1.54743795      -3.07028072       1.61922764
C        2.49260038      -2.48126514       2.46237459
C        2.64227769      -1.08258800       2.54174374
C        1.80778754      -0.28853856       1.74979723
C        3.59984843      -0.53790342       3.51507256
C        3.86228274      -1.03568389       4.78501754
C        4.93400530      -0.29113181       5.32043344
N        5.31750480       0.63494855       4.43917285
N        4.47989657       0.52028446       3.38267982
C        4.70012591       1.43372766       2.25849429
C        5.20650409       2.78156505       2.72779596
C        6.58699366       3.01887621       2.74142606
F        7.42334489       2.11238544       2.21410726
C        7.13215703       4.16778116       3.31114304
C        6.29274711       5.12103223       3.87791986
C        4.91238265       4.92095674       3.85726302
C        4.37280603       3.75818296       3.29064045
Cl       2.65552667       3.57085261       3.33032500
C        5.61694552      -0.43671245       6.60869475
C        5.24100851      -1.43383007       7.52169031
C        5.90098287      -1.56285202       8.74746030
C        6.94256392      -0.69957834       9.07559928
C        7.32444269       0.29295771       8.17550990
C        6.67079699       0.42597559       6.95104542
H        0.00976829      -2.72662564       0.16169237
H        1.43903084      -4.15191821       1.59585824
H        3.11113365      -3.13541132       3.07488194
H        1.83210344       0.79333277       1.82167055
H        3.34883222      -1.86494131       5.24851592
H        3.77934846       1.55685473       1.69104613
H        5.42191337       0.94144028       1.59690341
H        8.21013987       4.29643301       3.32754942
H        6.71061609       6.01039300       4.34310332
H        4.25985264       5.66666066       4.30696192
H        4.43398241      -2.12408941       7.29662910
H        5.59932705      -2.33986278       9.44574960
H        7.45040167      -0.80493771      10.03071429
H        6.98182007       1.20457585       6.25618229
C        8.40118543       1.18756644       8.51300108
C        9.30295747       1.93680126       8.79564994
Br      10.76104659       3.14825058       9.25266925
