173
Properties=species:S:1:pos:R:3 pbc="F F F"
C        0.00000000       0.00000000       0.00000000
C        0.88128303       0.88128303      -0.88128303
C        1.62204347       1.90876336      -0.30908545
C        2.42948546       2.71038118      -1.12182592
C        2.50854904       2.50195220      -2.51163414
C        1.73421843       1.47297067      -3.06719453
C        0.93337602       0.65983784      -2.25470495
C        3.36078977       3.38488144      -3.32517129
N        3.64176659       4.61406371      -2.87158218
N        4.48030389       5.15906447      -3.77929166
C        5.17436480       6.37154974      -3.35113716
C        4.48598053       7.65996898      -3.70017765
C        3.15143631       7.91207745      -3.34892221
C        2.58842140       9.17423554      -3.55911231
C        3.35207853      10.20101879      -4.11417185
C        4.67832195       9.96388015      -4.46635300
C        5.23146254       8.70395493      -4.25626998
F        6.52265983       8.51016094      -4.56283328
C        4.65988703       4.37233625      -4.90216626
C        5.36121344       4.72554348      -6.15118343
C        4.76478788       4.40521719      -7.38458984
C        5.41010558       4.64795929      -8.60098448
C        6.66154138       5.25240518      -8.60293653
C        7.26845287       5.59801504      -7.40124768
C        6.63218856       5.31560757      -6.18368575
C        4.01828034       3.17773194      -4.57202213
Cl       4.05944226       1.72521879      -5.47103124
H        1.57962084       2.10222654       0.75888344
H        2.99924342       3.51507824      -0.65801682
H        1.71894192       1.29059832      -4.13670039
H        0.34920412      -0.13766430      -2.70836567
H        6.19635866       6.33135852      -3.72186802
H        5.26748702       6.31698214      -2.25737216
H        2.54613121       7.13652648      -2.88078477
H        1.55625534       9.36055493      -3.27045008
H        2.91701833      11.18660962      -4.25937107
H        5.29115454      10.75637805      -4.88431452
H        3.78139471       3.93614806      -7.41598498
H        4.93467302       4.35061956      -9.53202028
H        8.24915935       6.06931898      -7.39212918
H        7.18151726       5.53870957      -5.27763777
C        7.33690638       5.50548059      -9.84930523
C        7.90252457       5.71743124     -10.89313902
Br       8.81708135       6.06013753     -12.58092998
C       -0.88128303      -0.88128303      -0.88128303
C       -0.29569263      -1.80232139      -1.74187827
C       -1.10900151      -2.60845677      -2.54423427
C       -2.51231840      -2.50739051      -2.50242648
C       -3.07750245      -1.55489483      -1.64198635
C       -2.26652892      -0.75381110      -0.82757880
C       -3.32301005      -3.36770456      -3.38012789
N       -2.77510460      -3.84728996      -4.50501792
N       -3.71420580      -4.64178231      -5.06267191
C       -3.24447708      -5.52384864      -6.12872598
C       -3.36126624      -4.96640657      -7.51845435
C       -2.82150906      -3.72036182      -7.87056509
C       -2.81982311      -3.29859501      -9.20335114
C       -3.34877591      -4.11789002     -10.20060324
C       -3.88676619      -5.35750448      -9.86428443
C       -3.88708645      -5.76979915      -8.53480185
F       -4.37096596      -6.98525917      -8.23942892
C       -4.93049780      -4.59750650      -4.40638523
C       -6.21028666      -5.19527750      -4.83237620
C       -7.38788956      -4.43144232      -4.73526304
C       -8.64073328      -4.96387035      -5.05444573
C       -8.73131731      -6.27273572      -5.51283006
C       -7.58350669      -7.04655293      -5.63765598
C       -6.33500675      -6.51825979      -5.27821534
C       -4.65698097      -3.85295842      -3.25809500
Cl      -5.70871358      -3.61424408      -1.93273463
H        0.78405216      -1.90219338      -1.80482272
H       -0.63363207      -3.32127587      -3.21743054
H       -4.15038138      -1.39933056      -1.59652870
H       -2.72930930      -0.02878914      -0.16180706
H       -3.74130342      -6.48582504      -6.02245674
H       -2.18344773      -5.72945373      -5.92893986
H       -2.37023246      -3.07881558      -7.11439441
H       -2.38656029      -2.33567389      -9.46502618
H       -3.32935741      -3.79515037     -11.23849126
H       -4.28762891      -6.01410649     -10.63011171
H       -7.34852846      -3.40002468      -4.38497461
H       -9.53263775      -4.35552702      -4.92914809
H       -7.64425585      -8.07314330      -5.99320836
H       -5.48509428      -7.18750934      -5.32526098
C      -10.01630881      -6.83277305      -5.84261035
C      -11.09248919      -7.30180432      -6.11880134
Br     -12.83258184      -8.06018821      -6.56537881
C       -0.88128303       0.88128303       0.88128303
C       -1.67684842       0.30090154       1.86214233
C       -2.47952135       1.11435416       2.66781705
C       -2.50264844       2.51251527       2.50697168
C       -1.70765920       3.07116057       1.49556386
C       -0.89284798       2.26075692       0.69431391
C       -3.37817325       3.32257545       3.37009380
N       -4.45748201       2.74977299       3.92015748
N       -5.02181318       3.69842914       4.69841771
C       -6.02909284       3.22350229       5.64445657
C       -7.44447639       3.25839125       5.14325952
C       -7.82425468       2.65113938       3.93704190
C       -9.17205356       2.57599140       3.57372429
C      -10.15643346       3.09809084       4.41274487
C       -9.79260884       3.70264655       5.61329971
C       -8.44844097       3.77588488       5.96736160
F       -8.12415023       4.32368585       7.14781796
C       -4.42112498       4.93782013       4.57544443
C       -4.87691096       6.22350338       5.13752602
C       -4.86253823       7.36999297       4.32206371
C       -5.21325047       8.63038047       4.81541842
C       -5.62048950       8.75839477       6.13799882
C       -5.66339965       7.64092714       6.96338880
C       -5.27251817       6.38672267       6.47224104
C       -3.29392420       4.68018881       3.79392139
Cl      -2.02630601       5.77463550       3.45475079
H       -1.68885902      -0.77519576       2.00930069
H       -3.10141800       0.64275929       3.42816119
H       -1.71511505       4.13727185       1.29385374
H       -0.27832393       2.71895007      -0.07736851
H       -5.90463041       3.76543122       6.57952356
H       -5.77527204       2.18154562       5.88502366
H       -7.07651595       2.20427128       3.28265522
H       -9.45443015       2.09103109       2.64179911
H      -11.20499330       3.02174399       4.13626175
H      -10.54718331       4.09944203       6.28522177
H       -4.55391835       7.30062553       3.27898388
H       -5.15194829       9.49957499       4.16578958
H       -5.97839879       7.73121741       8.00099131
H       -5.25500037       5.56532077       7.17754346
C       -5.98202609      10.05162686       6.65803926
C       -6.28481299      11.13470873       7.09357313
Br      -6.77439379      12.88596052       7.79779455
C        0.88128303      -0.88128303       0.88128303
C        0.75711015      -2.26421462       0.81856752
C        1.56957089      -3.06561051       1.62651116
C        2.51252099      -2.50265580       2.50695860
C        2.60256643      -1.10434669       2.56747051
C        1.79890875      -0.29822087       1.75078920
C        3.33198351      -3.39028608       3.34857290
N        2.87108231      -4.61366713       3.64266304
N        3.84636279      -5.21227698       4.36002026
C        3.71163155      -6.65755671       4.52786344
C        2.98515961      -7.09269207       5.76827548
C        1.70849453      -6.61060436       6.09333708
C        1.00187980      -7.14539311       7.17449634
C        1.55687335      -8.17212399       7.93827183
C        2.82303578      -8.66011457       7.62540476
C        3.52167321      -8.12114477       6.54886946
F        4.72091139      -8.63557605       6.23916661
C        4.89632849      -4.36770471       4.67035633
C        6.03328522      -4.63200607       5.57264907
C        6.42103053      -3.64075405       6.49281033
C        7.53354452      -3.80107990       7.32442493
C        8.26307480      -4.98276763       7.27104065
C        7.89343821      -5.98850634       6.38577105
C        6.79992886      -5.80451899       5.52703402
C        4.61871475      -3.21477666       3.93454299
Cl       5.65277169      -1.86940698       3.73351363
H        0.03518495      -2.73221996       0.15555903
H        1.45542602      -4.14772217       1.56919029
H        3.27905340      -0.61016328       3.25702396
H        1.89406864       0.78370661       1.80954346
H        4.69898897      -7.10658113       4.44401509
H        3.15610801      -7.03001602       3.65571729
H        1.23949075      -5.83436605       5.48958565
H        0.00733725      -6.77168522       7.40823788
H        0.99736916      -8.59862128       8.76700859
H        3.26259580      -9.46974817       8.19950314
H        5.86515896      -2.70576263       6.56260617
H        7.82575260      -2.99691071       7.99464955
H        8.45967140      -6.91627949       6.33465661
H        6.60140298      -6.58895081       4.80751080
C        9.41204861      -5.15857244       8.12107116
C       10.37431417      -5.30580896       8.83297171
Br      11.93021620      -5.54387797       9.98405469
