194
Properties=species:S:1:pos:R:3 pbc="F F F"
C        1.79118705       1.79118705      -1.79118705
C        2.53194749       2.81866739      -1.21898948
C        3.33938948       3.62028520      -2.03172994
C        3.41845307       3.41185623      -3.42153816
C        2.64412245       2.38287469      -3.97709856
C        1.84328005       1.56974187      -3.16460897
C        4.27069379       4.29478546      -4.23507531
N        4.55167062       5.52396773      -3.78148620
N        5.39020792       6.06896850      -4.68919569
C        6.08426883       7.28145377      -4.26104118
C        5.39588455       8.56987300      -4.61008168
C        4.06134034       8.82198147      -4.25882623
C        3.49832543      10.08413957      -4.46901633
C        4.26198256      11.11092281      -5.02407588
C        5.58822597      10.87378417      -5.37625703
C        6.14136656       9.61385896      -5.16617400
F        7.43256385       9.42006496      -5.47273730
C        5.56979105       5.28224027      -5.81207029
C        6.27111747       5.63544750      -7.06108746
C        5.67469190       5.31512122      -8.29449386
C        6.32000960       5.55786332      -9.51088851
C        7.57144541       6.16230920      -9.51284055
C        8.17835689       6.50791907      -8.31115171
C        7.54209258       6.22551159      -7.09358977
C        4.92818436       4.08763596      -5.48192615
Cl       4.96934629       2.63512282      -6.38093527
H        2.48952487       3.01213057      -0.15102058
H        3.90914745       4.42498227      -1.56792084
H        2.62884595       2.20050235      -5.04660441
H        1.25910815       0.77223972      -3.61826970
H        7.10626268       7.24126254      -4.63177204
H        6.17739104       7.22688616      -3.16727619
H        3.45603523       8.04643050      -3.79068879
H        2.46615936      10.27045896      -4.18035411
H        3.82692236      12.09651365      -5.16927510
H        6.20105856      11.66628208      -5.79421855
H        4.69129874       4.84605209      -8.32588900
H        5.84457704       5.26052358     -10.44192430
H        9.15906337       6.97922300      -8.30203320
H        8.09142128       6.44861359      -6.18754179
C        8.24681041       6.41538461     -10.75920926
C        8.81242860       6.62733527     -11.80304305
Br       9.72698537       6.97004155     -13.49083400
C       -1.79118705      -1.79118705      -1.79118705
C       -1.99404337      -1.45187047      -3.12369053
C       -2.80014842      -2.26518975      -3.92606646
C       -3.41526534      -3.42291826      -3.41366385
C       -3.21265739      -3.73095622      -2.06048209
C       -2.39589453      -2.92535926      -1.25637710
C       -4.26836200      -4.23608484      -4.29610772
N       -4.84047851      -3.65644929      -5.36019674
N       -5.49809405      -4.64248731      -6.00779074
C       -5.93784431      -4.32443443      -7.36448504
C       -7.33045947      -3.77252402      -7.47285574
C       -7.75262430      -2.66071643      -6.72880731
C       -9.00503442      -2.08493380      -6.96151311
C       -9.84675334      -2.60619716      -7.94403075
C       -9.43907156      -3.70906639      -8.69012922
C       -8.19161403      -4.27853691      -8.45124859
F       -7.80173621      -5.31290729      -9.21072262
C       -5.49269940      -5.84544646      -5.32595575
C       -6.24666230      -7.07167512      -5.64931502
C       -6.90772979      -7.76066066      -4.61591653
C       -7.57817541      -8.96617639      -4.84440963
C       -7.62637959      -9.48905727      -6.13115830
C       -6.99910255      -8.82169978      -7.17662534
C       -6.29522989      -7.63340830      -6.93255575
C       -4.61419711      -5.61786425      -4.26568512
Cl      -4.02500036      -6.78978175      -3.17062226
H       -1.54043226      -0.56192211      -3.55032165
H       -2.95340393      -1.98170182      -4.96694481
H       -3.69426051      -4.58534229      -1.59634990
H       -2.24691332      -3.19060790      -0.21209634
H       -5.78782547      -5.20257815      -7.98889365
H       -5.23891359      -3.57358197      -7.75905783
H       -7.09807604      -2.21389839      -5.98118009
H       -9.31528116      -1.21508544      -6.38660583
H      -10.81237583      -2.14498280      -8.13535247
H      -10.07511564      -4.11697869      -9.46946485
H       -6.89318859      -7.37259963      -3.59745160
H       -8.04364472      -9.48985677      -4.01352343
H       -7.02898024      -9.22423447      -8.18710487
H       -5.76425916      -7.19506672      -7.76825079
C       -8.31201401     -10.73097992      -6.37841035
C       -8.88623283     -11.77109014      -6.58548395
Br      -9.81469610     -13.45286039      -6.92030443
C       -1.79118705       1.79118705       1.79118705
C       -1.93196553       1.49564218       3.14199666
C       -2.73848205       2.30880938       3.94411320
C       -3.41561548       3.42284658       3.41338540
C       -3.27465248       3.68636009       2.04308313
C       -2.45785051       2.88122949       1.23855089
C       -4.26611532       4.23718646       4.29725279
N       -4.77633195       3.67789448       5.40289812
N       -5.44682038       4.66309159       6.03846014
C       -5.82408385       4.38101291       7.42166701
C       -7.18976148       3.78292199       7.60315576
C       -7.59629217       2.62885396       6.91700190
C       -8.81649145       2.01680099       7.21818889
C       -9.64084416       2.54387370       8.21226340
C       -9.24836072       3.68856270       8.90134375
C       -8.03309324       4.29389563       8.59441065
F       -7.65529005       5.37003788       9.30003819
C       -5.51224679       5.83860404       5.31325078
C       -6.29998593       7.04777616       5.61989034
C       -7.02426666       7.67220266       4.58783766
C       -7.73129617       8.86014188       4.79732337
C       -7.75214681       9.42951883       6.06492952
C       -7.06199015       8.82591030       7.10952722
C       -6.32280751       7.65580418       6.88258225
C       -4.66519648       5.60319031       4.22935969
Cl      -4.16161182       6.75338299       3.07040956
H       -1.42945422       0.63982095       3.58340084
H       -2.84255119       2.05973018       4.99976919
H       -3.80513802       4.50421415       1.56660054
H       -2.35748000       3.11180858       0.18032899
H       -5.68480954       5.28720649       8.00728124
H       -5.08306823       3.67187029       7.81661488
H       -6.95306761       2.17820125       6.16188566
H       -9.11426981       1.11489914       6.68780348
H      -10.58053720       2.05517187       8.45700203
H       -9.87046255       4.10225016       9.68884647
H       -7.03232524       7.24643772       3.58447686
H       -8.24653015       9.33437966       3.96611511
H       -7.07009061       9.26526208       8.10496689
H       -5.74523678       7.26937144       7.71296845
C       -8.47504209      10.65397124       6.29239094
C       -9.08046689      11.67945014       6.48288989
Br     -10.05938759      13.33756278       6.79091056
C        1.79118705      -1.79118705       1.79118705
C        2.35123456      -2.95059843       1.26777137
C        3.15988704      -3.75173990       2.07977769
C        3.41948841      -3.41161739       3.42074166
C        2.82451353      -2.24857361       3.93100856
C        2.02359752      -1.43678936       3.11724401
C        4.26410930      -4.29816855       4.23827672
N        4.36275459      -5.59169807       3.90267189
N        5.23952091      -6.13309329       4.77575790
C        5.75093705      -7.45505886       4.42076787
C        4.97815970      -8.61276205       4.98491748
C        3.59321764      -8.74442367       4.80450673
C        2.93102646      -9.90493048       5.21552438
C        3.64353922     -10.95006043       5.80338160
C        5.01884327     -10.83213774       5.98728616
C        5.67106086      -9.67268919       5.57764946
F        7.00201908      -9.59825937       5.72508767
C        5.62733128      -5.26071418       5.77605615
C        6.42760248      -5.56163280       6.97841715
C        6.01336240      -5.04932007       8.22162452
C        6.76593200      -5.23801651       9.38481291
C        7.94023459      -5.97906659       9.32729398
C        8.36587906      -6.51429599       8.11725262
C        7.62620950      -6.28757331       6.94741114
C        5.07859887      -4.04063961       5.37850799
Cl       5.37252667      -2.51762141       6.09525629
H        2.16642771      -3.24696909       0.23927922
H        3.58643502      -4.66018283       1.65543271
H        2.95134785      -1.95635964       4.96824521
H        1.58089862      -0.53484193       3.53387702
H        6.80747560      -7.49477906       4.67704260
H        5.72265071      -7.52464256       3.32426013
H        3.02125713      -7.95677507       4.31512233
H        1.85881889      -9.99994990       5.05820364
H        3.12879975     -11.85875414       6.10515721
H        5.59071713     -11.64256976       6.42827229
H        5.09376275      -4.46943948       8.30003760
H        6.43405178      -4.79351975      10.31945340
H        9.28515840      -7.09377835       8.06138283
H        8.04162915      -6.66465487       6.02129265
C        8.72487572      -6.17834076      10.51818781
C        9.38201266      -6.34523287      11.51556139
Br      10.44454753      -6.61508330      13.12823011
C       -0.00445707       0.01189536      -1.78238275
H       -0.66409135       0.67374010      -2.43557963
H        0.65740317      -0.63156657      -2.45157240
C       -0.90989263      -0.90692880      -0.91072765
C        0.90977584       0.90977584      -0.90977584
C       -0.00465871       1.77757030       0.00794375
H       -0.66225468       2.44313916      -0.64384735
H        0.64322798       2.43503045       0.67728295
C       -1.78241447       0.00034974      -0.00472694
H       -2.45427497      -0.65498947       0.64260836
H       -2.43311707       0.67328779      -0.65473579
C       -0.91132561       0.90220522       0.91563759
C       -0.01476271      -0.02253852       1.78660255
H       -0.67934791      -0.69751639       2.42135241
H        0.63392994       0.61504881       2.47327442
C        0.01484550      -1.77751727      -0.01636693
H        0.67870853      -2.42144646      -0.68295456
H       -0.62264859      -2.45592969       0.64226336
C        1.78714474       0.01002794       0.00389507
H        2.44202412       0.67113390       0.66197326
H        2.45385902      -0.65136977      -0.64189061
C        0.91606151      -0.90478549       0.90901405
