194
Properties=species:S:1:pos:R:3 pbc="F F F"
C        1.79136308       1.79136308      -1.79136308
C        2.76720853       1.20950171      -2.59344549
C        3.57684465       2.02155727      -3.39248842
C        3.42491484       3.41975684      -3.39963894
C        2.42988096       3.98441520      -2.58820699
C        1.61658976       3.17363765      -1.78630895
C        4.30150674       4.24955297      -4.23575939
C        4.30024744       5.65125607      -4.42510194
C        5.33599381       5.95796077      -5.30083906
C        5.72895702       7.28164870      -5.80996682
C        7.05991695       7.64583542      -6.04841209
C        7.38951974       8.92513872      -6.51539623
C        6.38986728       9.87141267      -6.71385497
C        5.06345881       9.54801204      -6.45476009
C        4.73863962       8.26035556      -6.01244060
N        5.87228363       4.72321549      -5.61512910
N        5.29234914       3.70262885      -4.94778475
C        7.02645797       4.37048129      -6.44386237
C        6.90258157       4.64775677      -7.91995878
C        5.70056147       4.42700761      -8.60484728
F        4.60372481       4.03564233      -7.94372025
C        5.59858102       4.57028619      -9.98872659
C        6.71589347       4.92490069     -10.73478580
C        7.93036924       5.13301406     -10.08692897
C        8.02438457       4.99053659      -8.69575565
Cl       9.58999884       5.22053170      -7.99556046
H        2.91237992       0.13284029      -2.60720737
H        4.33766673       1.55270475      -4.01512979
H        2.27251583       5.05878133      -2.56016481
H        0.85431932       3.63184203      -1.16152131
H        3.63297856       6.36970233      -3.96867077
H        7.87894233       6.96531335      -5.84795780
H        8.43104486       9.17296053      -6.70328822
H        4.27486312      10.28427117      -6.58715659
H        3.69137745       8.03268363      -5.82304572
H        7.19864892       3.29252383      -6.32293287
H        7.87745549       4.86664817      -5.97338407
H        4.64490211       4.38368840     -10.47418754
H        6.64709837       5.02189294     -11.81528570
H        8.81019493       5.39088482     -10.67340591
C        6.73118414      11.19219766      -7.17497297
C        7.01703702      12.29835509      -7.56115929
Br       7.47923693      14.08691810      -8.18558991
C       -1.79136308      -1.79136308      -1.79136308
C       -1.46867410      -3.13243486      -1.96904678
C       -2.27437238      -3.93311229      -2.78340568
C       -3.40707514      -3.40704376      -3.43019173
C       -3.71750268      -2.05374722      -3.23125325
C       -2.91239850      -1.24845095      -2.41568691
C       -4.22533373      -4.26737692      -4.29410846
C       -5.41230360      -3.96351507      -5.00078678
C       -5.79717504      -5.10941420      -5.68820441
C       -6.97277358      -5.29368948      -6.55410948
C       -6.95805350      -6.09069307      -7.70541788
C       -8.09658012      -6.22191304      -8.51156153
C       -9.25685963      -5.52383771      -8.19443759
C       -9.29030710      -4.70030042      -7.07562341
C       -8.15731434      -4.59343370      -6.26068774
N       -4.84369886      -6.04206907      -5.32486029
N       -3.87545836      -5.53590089      -4.53140348
C       -4.65543483      -7.42801515      -5.75735166
C       -5.71848147      -8.41144929      -5.34036635
C       -6.30879722      -8.35238374      -4.07123540
F       -5.99575664      -7.36592244      -3.22140832
C       -7.21076458      -9.31954927      -3.62727996
C       -7.53540760     -10.39462586      -4.44554650
C       -6.95163672     -10.49317651      -5.70549904
C       -6.04884379      -9.51575353      -6.14607950
Cl      -5.34069918      -9.75933913      -7.70605269
H       -0.59798076      -3.56785694      -1.48658989
H       -2.00956045      -4.98146884      -2.91447198
H       -4.58250478      -1.60134581      -3.70761138
H       -3.16827293      -0.20105668      -2.27835304
H       -5.93103342      -3.01480532      -5.02551292
H       -6.05988099      -6.60300495      -8.02932754
H       -8.05706262      -6.85851895      -9.39171203
H      -10.18447141      -4.13422507      -6.82759439
H       -8.21341270      -3.94606128      -5.38763281
H       -3.70124422      -7.77461863      -5.33824277
H       -4.50795266      -7.37198094      -6.83755412
H       -7.63851607      -9.23161279      -2.63264919
H       -8.22467861     -11.16047135      -4.09912704
H       -7.19021726     -11.34581838      -6.33845003
C      -10.42045814      -5.64364703      -9.03424960
C      -11.39497190      -5.74398734      -9.73759216
Br     -12.97067823      -5.90622912     -10.87483760
C       -1.79136308       1.79136308       1.79136308
C       -2.38391335       2.93006249       1.25617990
C       -3.18346213       3.73796431       2.06946391
C       -3.39935532       3.42208579       3.42286952
C       -2.79756286       2.26530187       3.93963841
C       -1.99581839       1.45326327       3.12745469
C       -4.22976654       4.29876298       4.25828959
C       -4.60725976       4.15547799       5.61386771
C       -5.38623783       5.25671383       5.95184199
C       -6.02035541       5.55405531       7.24616183
C       -6.14510913       6.85181341       7.75724192
C       -6.73931839       7.08641521       9.00432109
C       -7.18323798       6.01710200       9.77479495
C       -7.04319431       4.71611937       9.30691725
C       -6.47152814       4.49058552       8.04932212
N       -5.46270612       5.97482772       4.77309438
N       -4.73672353       5.43574554       3.77029366
C       -6.09135328       7.26508879       4.48435956
C       -7.59558262       7.31135229       4.56336220
C       -8.38294733       6.24912588       4.10034315
F       -7.81078666       5.12721859       3.64508214
C       -9.77559620       6.32039379       4.06160381
C      -10.42381489       7.47841991       4.47334516
C       -9.66965210       8.55945825       4.92120191
C       -8.27089350       8.47926690       4.96051641
Cl      -7.42619350       9.89585476       5.48404275
H       -2.23324142       3.20363949       0.21554667
H       -3.64071278       4.62720777       1.63758071
H       -2.93533895       1.97806116       4.97806186
H       -1.53517852       0.56357804       3.54892610
H       -4.33629127       3.35100840       6.28405199
H       -5.75709828       7.71140090       7.22371430
H       -6.83315257       8.10658709       9.36755394
H       -7.36823399       3.87050048       9.90755641
H       -6.37965083       3.46215379       7.70530218
H       -5.80481419       7.54702457       3.46226685
H       -5.59443373       7.97837645       5.14467755
H      -10.34176120       5.47109941       3.68991744
H      -11.50783639       7.54649472       4.42994589
H      -10.17618730       9.47376588       5.22453248
C       -7.77593232       6.25745559      11.06496686
C       -8.27231384       6.45875172      12.14548583
Br      -9.07492077       6.78423055      13.89259363
C        1.79136308      -1.79136308       1.79136308
C        2.10249912      -1.38358817       3.08406845
C        2.91639158      -2.19037818       3.88412059
C        3.43004434      -3.40897528       3.40529101
C        3.09771287      -3.80374766       2.10104262
C        2.28219630      -2.99779915       1.29654090
C        4.29712917      -4.22779164       4.26189830
C        4.88442601      -5.48838269       4.00379676
C        5.63242512      -5.84038247       5.12198606
C        6.41888729      -7.06572939       5.33595586
C        7.62952972      -7.08518119       6.03945355
C        8.35506045      -8.27280552       6.20218872
C        7.89462960      -9.45271752       5.62778781
C        6.71267943      -9.45655548       4.89699602
C        5.97999141      -8.27186183       4.75958253
N        5.42022660      -4.79232668       5.99807494
N        4.66360881      -3.80339582       5.47575810
C        5.97806447      -4.53565026       7.32708691
C        5.56381514      -5.48323028       8.42325169
C        4.25302171      -5.97013721       8.50925744
F        3.35127268      -5.66409496       7.56771976
C        3.82285038      -6.75666659       9.57807684
C        4.69963166      -7.06492787      10.61102043
C        6.00404942      -6.58077711      10.56548573
C        6.43008742      -5.79392810       9.48666129
Cl       8.05398437      -5.19981496       9.55229168
H        1.72483605      -0.44572354       3.48186800
H        3.15278284      -1.85848748       4.89423094
H        3.46835303      -4.73674358       1.68636536
H        2.04033346      -3.32022084       0.28712835
H        4.79177696      -6.07783413       3.10174058
H        8.06157769      -6.18037785       6.45025793
H        9.28495617      -8.25751753       6.76481990
H        6.35192695     -10.36768210       4.42668183
H        5.05500559      -8.30502576       4.18707544
H        5.66239262      -3.52674719       7.62496580
H        7.05808344      -4.48202069       7.17738360
H        2.79479469      -7.10675214       9.60123122
H        4.36598679      -7.66336684      11.45492338
H        6.68494141      -6.80516890      11.38437535
C        8.65077980     -10.66888597       5.77868901
C        9.28405558     -11.68742705       5.90506876
Br      10.30800898     -13.33432183       6.10941414
C       -0.00445707       0.01189536      -1.78238275
H       -0.66409135       0.67374010      -2.43557963
H        0.65740317      -0.63156657      -2.45157240
C       -0.90989263      -0.90692880      -0.91072765
C        0.90977584       0.90977584      -0.90977584
C       -0.00465871       1.77757030       0.00794375
H       -0.66225468       2.44313916      -0.64384735
H        0.64322798       2.43503045       0.67728295
C       -1.78241447       0.00034974      -0.00472694
H       -2.45427497      -0.65498947       0.64260836
H       -2.43311707       0.67328779      -0.65473579
C       -0.91132561       0.90220522       0.91563759
C       -0.01476271      -0.02253852       1.78660255
H       -0.67934791      -0.69751639       2.42135241
H        0.63392994       0.61504881       2.47327442
C        0.01484550      -1.77751727      -0.01636693
H        0.67870853      -2.42144646      -0.68295456
H       -0.62264859      -2.45592969       0.64226336
C        1.78714474       0.01002794       0.00389507
H        2.44202412       0.67113390       0.66197326
H        2.45385902      -0.65136977      -0.64189061
C        0.91606151      -0.90478549       0.90901405
