165
Properties=species:S:1:pos:R:3 pbc="F F F"
C        0.00000000       0.00000000       0.00000000
C        0.88145905       0.88145905      -0.88145905
C        1.85730451       0.29959769      -1.68354147
C        2.66694063       1.11165325      -2.48258440
C        2.51501082       2.50985282      -2.48973492
C        1.51997693       3.07451117      -1.67830297
C        0.70668574       2.26373362      -0.87640492
C        3.39160272       3.33964895      -3.32585537
C        3.39034342       4.74135205      -3.51519792
C        4.42608979       5.04805675      -4.39093504
C        4.81905299       6.37174468      -4.90006280
C        6.15001292       6.73593140      -5.13850806
C        6.47961572       8.01523470      -5.60549221
C        5.47996326       8.96150865      -5.80395095
Br       5.92775682      10.69432375      -6.40891863
C        4.15355479       8.63810801      -5.54485607
C        3.82873559       7.35045153      -5.10253658
N        4.96237960       3.81331147      -4.70522507
N        4.38244511       2.79272482      -4.03788073
C        6.11655394       3.46057727      -5.53395835
C        5.99267754       3.73785275      -7.01005475
C        4.79065745       3.51710359      -7.69494326
F        3.69382079       3.12573831      -7.03381623
C        4.68867699       3.66038217      -9.07882257
C        5.80598945       4.01499666      -9.82488178
C        7.02046522       4.22311004      -9.17702494
C        7.11448055       4.08063257      -7.78585163
Cl       8.68009482       4.31062768      -7.08565644
H        2.00247589      -0.77706373      -1.69730335
H        3.42776270       0.64280072      -3.10522576
H        1.36261181       4.14887730      -1.65026078
H       -0.05558471       2.72193800      -0.25161729
H        2.72307453       5.45979831      -3.05876675
H        6.96903830       6.05540933      -4.93805377
H        7.52114083       8.26305650      -5.79338419
H        3.36495909       9.37436715      -5.67725257
H        2.78147342       7.12277961      -4.91314169
H        6.28874489       2.38261981      -5.41302884
H        6.96755146       3.95674415      -5.06348005
H        3.73499808       3.47378438      -9.56428352
H        5.73719434       4.11198891     -10.90538168
H        7.90029091       4.48098080      -9.76350188
C       -0.88145905      -0.88145905      -0.88145905
C       -2.18231923      -0.48522712      -1.17289732
C       -2.98777831      -1.29967057      -1.97372939
C       -2.50773713      -2.51655268      -2.49030875
C       -1.19052540      -2.89297567      -2.18929001
C       -0.38046635      -2.07916085      -1.38719709
C       -3.38217638      -3.36060986      -3.31432080
C       -3.09971727      -4.58672319      -3.96045293
C       -4.26097894      -4.99969116      -4.60441147
C       -4.46391897      -6.20942564      -5.41751586
C       -5.66373206      -6.93140329      -5.42931704
C       -5.80580908      -8.08978635      -6.20474719
C       -4.73177705      -8.56247917      -6.95116663
Br      -4.91612646     -10.13875335      -7.97611938
C       -3.51906959      -7.88417386      -6.93327541
C       -3.39173324      -6.71374422      -6.17624625
N       -5.15853252      -3.98201827      -4.34036535
N       -4.65760798      -3.02336786      -3.53207482
C       -6.57393289      -3.84762315      -4.68953352
C       -6.89209303      -3.69395110      -6.15454091
C       -6.08618952      -2.91837593      -6.99813884
F       -4.96284361      -2.35498730      -6.53554442
C       -6.42607575      -2.67311306      -8.32869293
C       -7.60578491      -3.18911845      -8.85096452
C       -8.43863341      -3.94830388      -8.03366290
C       -8.08884929      -4.19339879      -6.69871667
Cl      -9.21755795      -5.10405452      -5.75476647
H       -2.58407729       0.44703430      -0.78567252
H       -4.00482998      -0.97760518      -2.19335403
H       -0.77342967      -3.82254828      -2.56577194
H        0.63600317      -2.39159352      -1.16238023
H       -2.16233824      -5.12617575      -3.95312560
H       -6.50755330      -6.63952780      -4.81542031
H       -6.75430294      -8.62068030      -6.20259828
H       -2.66615009      -8.25372930      -7.49669941
H       -2.43255619      -6.19958353      -6.18525500
H       -6.95502063      -2.95650076      -4.17287215
H       -7.06562691      -4.70188038      -4.22026837
H       -5.76991468      -2.06163937      -8.94151192
H       -7.88466079      -2.98777140      -9.88213274
H       -9.37251782      -4.33546880      -8.43678697
C       -0.88145905       0.88145905       0.88145905
C       -0.35892786       2.04435741       1.43715839
C       -1.16769017       2.84361076       2.24987735
C       -2.50277061       2.49268242       2.51914553
C       -3.01085720       1.31929219       1.94264169
C       -2.20325858       0.51602334       1.12754236
C       -3.32396135       3.34214372       3.39100197
C       -4.68227687       3.20409444       3.76052207
C       -4.99356300       4.25428490       4.61723368
C       -6.28543816       4.54695055       5.25847176
C       -6.39628801       5.07920390       6.54896048
C       -7.64868412       5.32397519       7.12768330
C       -8.80993157       5.00207936       6.43341192
Br     -10.49787774       5.30841262       7.22470883
C       -8.72987044       4.44285834       5.16379008
C       -7.47591181       4.22427988       4.58153201
N       -3.81907132       4.98053893       4.68130590
N       -2.80399548       4.41797861       3.99107657
C       -3.47736669       6.16948670       5.46423617
C       -4.19765133       7.44230527       5.10062845
C       -4.46329967       7.77377251       3.76563212
F       -4.15026797       6.92390166       2.77920570
C       -5.02702304       8.99734730       3.40351140
C       -5.32635851       9.94037910       4.37913028
C       -5.05709684       9.64981302       5.71369034
C       -4.49375030       8.41693545       6.07027900
Cl      -4.15083903       8.17632193       7.74921798
H        0.66975624       2.34078906       1.25168269
H       -0.74537610       3.75115672       2.67925638
H       -4.03592876       1.00651384       2.11930729
H       -2.61537166      -0.39156121       0.69416013
H       -5.36452244       2.42269402       3.45442313
H       -5.52175617       5.28656593       7.15417931
H       -7.70128093       5.75000563       8.12629497
H       -9.62932158       4.16876545       4.61849177
H       -7.44287567       3.79065473       3.58386432
H       -2.40174336       6.34903657       5.33361361
H       -3.60930404       5.87216137       6.50631024
H       -5.21007453       9.20907837       2.35391308
H       -5.75025703      10.90223612       4.10207178
H       -5.27265816      10.39624786       6.47586757
C        0.88145905      -0.88145905       0.88145905
C        0.46102238      -2.16450794       1.21491335
C        1.26799389      -2.96446872       2.02871566
C        2.49939731      -2.49511318       2.52008807
C        2.90670431      -1.20062775       2.16545901
C        2.10061068      -0.39625042       1.34996318
C        3.31835844      -3.35108526       3.38766334
C        4.58984540      -3.10201478       3.95503320
C        4.93709138      -4.21491429       4.71307591
C        6.16981980      -4.43477464       5.48626603
C        6.19608219      -5.12263894       6.70573126
C        7.39095772      -5.29156930       7.41781560
C        8.57207220      -4.73883618       6.93451447
Br      10.17787398      -4.94491375       7.90821146
C        8.56982976      -4.02361610       5.74307300
C        7.37746012      -3.88013498       5.02412860
N        3.87500388      -5.07978495       4.52612732
N        2.88306110      -4.55436190       3.77562766
C        3.60842263      -6.39791488       5.10475205
C        4.53609472      -7.51179253       4.69269779
C        5.00449865      -7.62128304       3.37692260
F        4.69887224      -6.68761395       2.46688913
C        5.77129383      -8.70590195       2.95068595
C        6.07761878      -9.73131573       3.83693338
C        5.61135925      -9.66240874       5.14683221
C        4.84432026      -8.56783612       5.56880837
Cl       4.27088555      -8.60446253       7.20103085
H       -0.48684667      -2.55478097       0.85478121
H        0.92612286      -3.96694622       2.28272010
H        3.84983264      -0.79350713       2.51841013
H        2.43293302       0.60558310       1.09062066
H        5.18972244      -2.20909969       3.84281746
H        5.29178540      -5.51580406       7.15491194
H        7.38061602      -5.84178968       8.35517582
H        9.48216479      -3.57010620       5.36430782
H        7.40586812      -3.32021234       4.09131426
H        2.59164699      -6.68653946       4.80620709
H        3.57100564      -6.23346183       6.18330819
H        6.10744997      -8.74706343       1.91855258
H        6.66055942     -10.58731727       3.50668824
H        5.83403205     -10.47525004       5.83549151
