198
Properties=species:S:1:pos:R:3 pbc="F F F"
C        1.79219129       1.79219129      -1.79219129
C        1.41170372       3.10871270      -2.04844381
C        2.21578620       3.91379565      -2.85304225
C        3.39171588       3.39770167      -3.39993460
C        3.77384799       2.07350610      -3.14766892
C        2.97002221       1.27134570      -2.33101236
C        5.01672506       1.56517316      -3.71379715
C        6.31070669       1.99496455      -3.49566120
C        7.13672086       1.25499055      -4.37858229
N        6.40495761       0.36574747      -5.06626386
N        5.12356559       0.61864649      -4.70676206
C        4.05569449      -0.07524422      -5.40244967
N        3.76424186       0.55063217      -6.68111439
N        2.79591467       1.49640221      -6.72997690
C        2.81087344       1.91999617      -7.99941939
C        1.91710586       3.02141359      -8.43053449
C        3.74844707       1.20084786      -8.77231231
Cl       4.07564881       1.42747429     -10.42180808
C        4.33691477       0.30136424      -7.90844130
C        5.40617522      -0.69953783      -8.15480796
C        8.57414664       1.41417297      -4.60426924
C        9.13364865       1.07778314      -5.84728524
C       10.49120798       1.28770845      -6.10157831
C       11.30773743       1.83057149      -5.11171204
C       10.76204394       2.15410734      -3.87103945
Br      11.86981380       2.89027049      -2.52596602
C        9.40555373       1.94994196      -3.61150549
H        0.49569468       3.51562167      -1.62825353
H        1.92762362       4.94145337      -3.05934661
H        4.00548991       4.03370258      -4.03511564
H        3.26382800       0.24953723      -2.10646195
H        6.60792793       2.78492291      -2.81990475
H        3.14623979      -0.07324485      -4.79658509
H        4.35349513      -1.11528002      -5.55874809
H        2.50721681       3.89960125      -8.71142735
H        1.23071670       3.31811947      -7.63088517
H        1.31695019       2.71587257      -9.29308562
H        5.27812987      -1.16117412      -9.13945249
H        5.40321425      -1.51018401      -7.42263470
H        6.38802477      -0.21725820      -8.13213094
H        8.50483748       0.66619455      -6.63491925
H       10.90603559       1.03533023      -7.07428192
H       12.36183534       1.99831909      -5.31646426
H        9.00327289       2.20831479      -2.63611189
C       -1.79219129      -1.79219129      -1.79219129
C       -1.66953073      -3.17907425      -1.72025524
C       -2.47374017      -3.98422944      -2.52465449
C       -3.39156126      -3.39925654      -3.39853435
C       -3.51341038      -2.00559043      -3.47602220
C       -2.71223475      -1.20055532      -2.65959021
C       -4.49373019      -1.42034495      -4.38162023
C       -5.86803205      -1.55443158      -4.37886882
C       -6.34131041      -0.89052542      -5.53845787
N       -5.32222143      -0.31821791      -6.19652961
N       -4.21225861      -0.71047239      -5.52624315
C       -2.91202791      -0.38720999      -6.08366203
N       -2.54154783      -1.31932125      -7.13511935
N       -1.81076411      -2.40986623      -6.80166345
C       -1.69163624      -3.09130816      -7.94734459
C       -0.99833674      -4.40152165      -7.96919554
C       -2.29609955      -2.40343608      -9.02207161
Cl      -2.36573215      -2.92343224     -10.63576678
C       -2.81777506      -1.24666599      -8.48227926
C       -3.58073527      -0.14983604      -9.13087403
C       -7.71495997      -0.83653908      -6.04108981
C       -7.95669633      -0.68607999      -7.41594071
C       -9.25972909      -0.70126155      -7.91950410
C      -10.33819564      -0.86004940      -7.05177593
C      -10.10647722      -0.99622938      -5.68448412
Br     -11.56992159      -1.21087008      -4.50525864
C       -8.80666394      -0.98523672      -5.17510051
H       -0.95461227      -3.64071222      -1.04424538
H       -2.38535621      -5.06660876      -2.47645864
H       -4.00638431      -4.03903779      -4.02888603
H       -2.81056285      -0.11879053      -2.69047380
H       -6.44638684      -2.11151010      -3.65485865
H       -2.14789150      -0.41859935      -5.30308918
H       -2.94235292       0.62943342      -6.48404368
H       -1.70655846      -5.20035727      -8.21132967
H       -0.54720068      -4.63351101      -6.99900964
H       -0.20205488      -4.40401452      -8.71983898
H       -3.18148382       0.05482027     -10.12974469
H       -3.53098229       0.78753090      -8.57221354
H       -4.63224756      -0.43264610      -9.23800384
H       -7.12306905      -0.57554848      -8.10733375
H       -9.42920399      -0.59803738      -8.98840637
H      -11.34969332      -0.87798990      -7.44893546
H       -8.65101679      -1.09138827      -4.10529451
C       -1.79219129       1.79219129       1.79219129
C       -3.17919600       1.67332537       1.71633885
C       -3.98435633       2.47769507       2.52057271
C       -3.39947238       3.39828842       3.39159135
C       -2.00589442       3.52288526       3.46624334
C       -1.20037417       2.70658832       2.66541779
C       -1.41981386       4.47717683       4.39870468
C       -1.51099935       4.51431273       5.77602037
C       -0.87022364       5.70853357       6.19153649
N       -0.35122677       6.35105931       5.13468287
N       -0.75607685       5.63368296       4.05921434
C       -0.49138180       6.15891090       2.73260724
N       -1.46777066       7.16849909       2.35971868
N       -2.56923595       6.77808538       1.67497246
C       -3.29041945       7.89764438       1.54222516
C       -4.62155847       7.85656308       0.89093238
C       -2.61890775       9.01203671       2.09066278
Cl      -3.18794496      10.61020725       2.12677896
C       -1.42978819       8.52542660       2.59150552
C       -0.33114568       9.23189166       3.29840801
C       -0.78974218       6.25636902       7.54647766
C       -0.67599207       7.64227067       7.74045429
C       -0.66683248       8.18662524       9.02703703
C       -0.76415788       7.34939709      10.13646600
C       -0.86357428       5.97181153       9.95180492
Br      -0.99475727       4.83400109      11.45729195
C       -0.87663207       5.42161565       8.66875345
H       -3.64090877       0.96073843       1.03792267
H       -5.06685723       2.39310076       2.46846561
H       -4.03972647       4.02784955       4.00673211
H       -0.11762347       2.77418725       2.72801646
H       -2.02635610       3.79226094       6.39413856
H       -0.52145171       5.35364913       1.99447919
H        0.51235751       6.59143776       2.71788295
H       -5.40536493       8.09634756       1.61653292
H       -4.83623078       6.86567968       0.47781088
H       -4.67283700       8.58085902       0.07221235
H       -0.17110762      10.22332607       2.86197456
H        0.62164821       8.70130335       3.23600980
H       -0.58445261       9.36383470       4.35461019
H       -0.61361954       8.30968827       6.88264347
H       -0.59270817       9.26310009       9.15983949
H       -0.76339776       7.77802394      11.13519698
H       -0.95322246       4.34459025       8.54988686
C        1.79219129      -1.79219129       1.79219129
C        2.33744694      -1.26805203       2.96336125
C        3.14221178      -2.07207526       3.76833706
C        3.40078428      -3.39229003       3.39627784
C        2.85776259      -3.91991926       2.21734117
C        2.04177196      -3.11351754       1.41709078
C        3.12621609      -5.30747627       1.86200300
C        2.79465801      -6.45965317       2.54702127
C        3.39257720      -7.53485591       1.84286059
N        4.01143015      -7.08398227       0.74155653
N        3.90338368      -5.73536255       0.81022792
C        4.61663967      -4.92957879      -0.16331853
N        6.01669472      -4.78232039       0.19697332
N        6.38303545      -3.70607191       0.93318642
C        7.69078190      -3.88570802       1.15379907
C        8.44530658      -2.92733012       1.99641722
C        8.16854950      -5.04621258       0.50684516
Cl       9.76227456      -5.62804254       0.53461407
C        7.07668053      -5.59884765      -0.12880787
C        6.97180648      -6.83499731      -0.94535845
C        3.42137930      -8.94799777       2.22321179
C        4.48285186      -9.76785789       1.80800728
C        4.56081342     -11.10083838       2.21884294
C        3.57274896     -11.63222575       3.04504626
C        2.50912065     -10.82816675       3.44990333
Br       1.16649303     -11.54875256       4.57080473
C        2.42694634      -9.49439792       3.04565691
H        2.14256740      -0.23995719       3.25704528
H        3.57258086      -1.67266501       4.68317773
H        4.03937932      -4.00654722       4.02838158
H        1.59387288      -3.51421651       0.51173780
H        2.23571368      -6.50563526       3.47140666
H        4.16708811      -3.93602072      -0.23352880
H        4.53486049      -5.40585900      -1.14375630
H        8.78711632      -3.41753829       2.91359079
H        7.82677858      -2.07047457       2.28246819
H        9.31961199      -2.54692612       1.45937027
H        7.86446872      -6.95919611      -1.56725659
H        6.11419167      -6.82328823      -1.62181497
H        6.88726770      -7.71127441      -0.29564461
H        5.26954953      -9.36223288       1.17416887
H        5.39692692     -11.71840243       1.90031840
H        3.64123755     -12.66783623       3.36754491
H        1.58739008      -8.88762289       3.37268660
C       -0.00445707       0.01189536      -1.78238275
H       -0.66409135       0.67374010      -2.43557963
H        0.65740317      -0.63156657      -2.45157240
C       -0.90989263      -0.90692880      -0.91072765
C        0.90977584       0.90977584      -0.90977584
C       -0.00465871       1.77757030       0.00794375
H       -0.66225468       2.44313916      -0.64384735
H        0.64322798       2.43503045       0.67728295
C       -1.78241447       0.00034974      -0.00472694
H       -2.45427497      -0.65498947       0.64260836
H       -2.43311707       0.67328779      -0.65473579
C       -0.91132561       0.90220522       0.91563759
C       -0.01476271      -0.02253852       1.78660255
H       -0.67934791      -0.69751639       2.42135241
H        0.63392994       0.61504881       2.47327442
C        0.01484550      -1.77751727      -0.01636693
H        0.67870853      -2.42144646      -0.68295456
H       -0.62264859      -2.45592969       0.64226336
C        1.78714474       0.01002794       0.00389507
H        2.44202412       0.67113390       0.66197326
H        2.45385902      -0.65136977      -0.64189061
C        0.91606151      -0.90478549       0.90901405
