185
Properties=species:S:1:pos:R:3 pbc="F F F"
C        0.00000000       0.00000000       0.00000000
C        0.88157665       0.88157665      -0.88157665
C        1.92900733       0.31382363      -1.60018013
C        2.73170314       1.12439627      -2.40905765
C        2.49731978       2.50718793      -2.51155637
C        1.43793627       3.05798471      -1.77426637
C        0.63311131       2.24944832      -0.96229789
C        3.34674591       3.34058381      -3.37094557
C        3.20729622       4.70958428      -3.70011892
C        4.26602090       5.04424409      -4.52903372
C        4.61265531       6.36547392      -5.06318261
C        5.00660082       6.55659650      -6.39205966
C        5.32982945       7.83207543      -6.86953905
C        5.22595449       8.93297553      -6.02718494
C        4.80482586       8.77146853      -4.71167236
C        4.50341845       7.49429203      -4.23378814
N        4.96146131       3.86128739      -4.68893369
N        4.44147161       2.84443185      -3.96052746
C        6.24366086       3.62578098      -5.33624641
N        6.14968010       3.21378440      -6.73290707
N        6.84198994       3.93367522      -7.65322353
C        6.65149867       3.28326985      -8.80644346
C        7.27308909       3.78946234     -10.05361614
C        5.85965117       2.13041789      -8.62324508
Cl       5.40479205       1.02491172      -9.82729317
C        5.56598300       2.08762767      -7.27611091
C        4.79473448       1.08353506      -6.50050787
H        2.13221243      -0.75211495      -1.54228505
H        3.54772533       0.66554846      -2.96452613
H        1.22099930       4.12180385      -1.81257163
H       -0.18205192       2.69758710      -0.40018356
H        2.43698366       5.39056227      -3.36373898
H        5.05015080       5.72741781      -7.09159609
H        5.65059144       7.94804205      -7.90139118
H        4.70480009       9.63115185      -4.05084856
H        4.18103994       7.38966700      -3.20032873
H        6.77222506       2.83190913      -4.79759045
H        6.84120398       4.54055015      -5.26996177
H        6.63876818       3.58612514     -10.92392034
H        8.24212157       3.30559357     -10.21577464
H        7.43261124       4.87068686     -10.00803946
H        5.30512687       0.82091681      -5.56991496
H        4.67253118       0.15505779      -7.06752765
H        3.79299996       1.46208575      -6.27440194
C        5.54555056      10.24706659      -6.52177876
C        5.81321228      11.34761784      -6.93600108
Br       6.24599863      13.12711615      -7.60576354
C       -0.88157665      -0.88157665      -0.88157665
C       -2.20342460      -0.51902000      -1.12056649
C       -3.00621565      -1.32752230      -1.93141912
C       -2.49947190      -2.50307735      -2.51351483
C       -1.16473169      -2.85064870      -2.25480696
C       -0.35853710      -2.04407632      -1.44224409
C       -3.35576307      -3.33541942      -3.36709281
C       -3.01060684      -4.47504360      -4.13134899
C       -4.16654756      -4.92094277      -4.75180839
C       -4.34418712      -6.12090432      -5.57622041
C       -5.07826757      -6.10970412      -6.76728530
C       -5.22730663      -7.27346256      -7.53067474
C       -4.61070875      -8.45115467      -7.12425153
C       -3.84887072      -8.47798260      -5.96111343
C       -3.72018850      -7.31958876      -5.19172135
N       -5.13317760      -4.01239899      -4.36610580
N       -4.66401868      -3.08372761      -3.49868463
C       -6.57118564      -4.04585121      -4.58865140
N       -7.01825832      -3.31084793      -5.76726532
N       -7.77551757      -3.97527409      -6.67809703
C       -8.11322669      -3.04746900      -7.58051629
C       -8.95766200      -3.41666853      -8.74183705
C       -7.59630674      -1.78110011      -7.23590729
Cl      -7.81290622      -0.33970878      -8.10438193
C       -6.91416021      -1.96450848      -6.05105288
C       -6.19595110      -0.97993868      -5.20288764
H       -2.62140313       0.38504800      -0.68602741
H       -4.03852031      -1.03087249      -2.10840712
H       -0.72847385      -3.75304303      -2.67385788
H        0.67255570      -2.33268993      -1.25558451
H       -2.03708052      -4.93929332      -4.21491106
H       -5.53112927      -5.19661789      -7.14141754
H       -5.81857505      -7.23956262      -8.44188699
H       -3.34901613      -9.39242034      -5.64536403
H       -3.12427884      -7.36379829      -4.28295853
H       -7.07456197      -3.60643141      -3.72073126
H       -6.88675226      -5.09050883      -4.67445480
H       -8.69377299      -2.82753032      -9.62751035
H      -10.01350893      -3.23679196      -8.51318889
H       -8.83761218      -4.47256066      -9.00116471
H       -6.43575146      -1.11543505      -4.14477213
H       -6.47793977       0.04549322      -5.46267007
H       -5.11458493      -1.06756869      -5.34733403
C       -4.75274129      -9.64532040      -7.91633422
C       -4.87169354     -10.64543420      -8.57970347
Br      -5.06402928     -12.26253361      -9.65231543
C       -0.88157665       0.88157665       0.88157665
C       -0.37377118       2.06824649       1.40099342
C       -1.18579642       2.87431621       2.20504443
C       -2.51148221       2.50729402       2.49728785
C       -3.00033884       1.30404320       1.96580532
C       -2.18950544       0.49388302       1.16146905
C       -3.35051435       3.36981141       3.33794953
C       -4.72509389       3.24332011       3.64858543
C       -5.05522025       4.29151503       4.49256345
C       -6.33612399       4.54448472       5.16070314
C       -6.90686104       5.82015431       5.22824164
C       -8.13189867       6.02622382       5.87332144
C       -8.81312678       4.94758383       6.42540435
C       -8.28094455       3.66549412       6.34152808
C       -7.04843576       3.46783565       5.71522720
N       -3.88361605       5.01332372       4.61474261
N       -2.84431884       4.44120911       3.96090297
C       -3.58022102       6.13783952       5.48762771
N       -3.77286119       7.44823829       4.87527209
N       -4.57649270       8.33505120       5.51734478
C       -4.49099908       9.45667087       4.79354202
C       -5.24886918      10.66282860       5.20446979
C       -3.61154451       9.29983885       3.70193077
Cl      -3.21296601      10.48694864       2.55708228
C       -3.13844807       8.00670571       3.78456780
C       -2.15940557       7.29364068       2.92573117
H        0.64610044       2.37845054       1.19003243
H       -0.77388072       3.79934684       2.60457236
H       -4.01452619       0.97182730       2.16902127
H       -2.58917864      -0.43385042       0.76039052
H       -5.40498556       2.47048439       3.31581497
H       -6.42782285       6.67696970       4.76437214
H       -8.54238905       7.03107114       5.92656447
H       -8.81679071       2.81329729       6.75671250
H       -6.64780405       2.45792745       5.66530416
H       -2.53127740       6.07395284       5.79649440
H       -4.20558338       6.06318236       6.38295016
H       -5.56957992      11.24570495       4.33352879
H       -4.62412520      11.30465262       5.83471196
H       -6.14619080      10.39520261       5.76994415
H       -1.43622999       6.73430435       3.52542430
H       -1.58611383       7.99642075       2.31258204
H       -2.67525220       6.61080109       2.24343435
C      -10.07983830       5.15713227       7.07742534
C      -11.14070920       5.33262909       7.62349291
Br     -12.85604772       5.61639260       8.50643800
C        0.88157665      -0.88157665       0.88157665
C        0.48062884      -2.17934759       1.18303466
C        1.29279671      -2.98443749       1.98792286
C        2.51260213      -2.50544537       2.49801658
C        2.89410353      -1.19198439       2.18409943
C        2.08258954      -0.38269067       1.37957730
C        3.35461242      -3.36779996       3.33586291
C        4.65281382      -3.12209545       3.84209015
C        5.01889635      -4.22797916       4.59242322
C        6.23374251      -4.41495360       5.39261574
C        6.95943268      -5.61117492       5.38464939
C        8.11572795      -5.75553345       6.16018253
C        8.57462385      -4.68814245       6.92334865
C        7.88793299      -3.47882105       6.92121271
C        6.72319433      -3.34615968       6.16214460
N        3.94936291      -5.09364452       4.46867496
N        2.92738638      -4.56596927       3.75307527
C        3.69912631      -6.35373709       5.15282485
N        4.13830849      -7.53720028       4.42086280
N        4.97235805      -8.40083886       5.05569178
C        5.12568024      -9.41657706       4.19895468
C        5.98528908     -10.56857261       4.56230589
C        4.36900766      -9.21931318       3.02499330
Cl       4.27319094     -10.27978990       1.70401609
C        3.71917510      -8.01459954       3.19594694
C        2.76177849      -7.31343210       2.30356683
H       -0.45567307      -2.57711061       0.80094500
H        0.96507780      -3.99725716       2.21546496
H        3.82276087      -0.77219740       2.56041649
H        2.39808464       0.63154340       1.14917750
H        5.25676659      -2.23618391       3.69833441
H        6.65899842      -6.44826135       4.76190492
H        8.64890721      -6.70244564       6.14867182
H        8.25065403      -2.63295729       7.50318919
H        6.19863533      -2.39354679       6.17885354
H        2.62197828      -6.45716210       5.32258425
H        4.19789525      -6.32694958       6.12687107
H        6.48290916     -10.98624416       3.67966034
H        5.38256835     -11.35923278       5.02168864
H        6.76469179     -10.27512242       5.27152335
H        1.90364339      -6.93007639       2.86223887
H        2.36555137      -7.99002660       1.53953865
H        3.25801934      -6.48832625       1.78314206
C        9.77155922      -4.83191197       7.71092472
C       10.77399258      -4.95231895       8.37051967
Br      12.39484255      -5.14700684       9.43702893
