177
Properties=species:S:1:pos:R:3 pbc="F F F"
C        0.00000000       0.00000000       0.00000000
C        0.88157665       0.88157665      -0.88157665
C        1.92900733       0.31382363      -1.60018013
C        2.73170314       1.12439627      -2.40905765
C        2.49731978       2.50718793      -2.51155637
C        1.43793627       3.05798471      -1.77426637
C        0.63311131       2.24944832      -0.96229789
C        3.34674591       3.34058381      -3.37094557
C        3.20729622       4.70958428      -3.70011892
C        4.26602090       5.04424409      -4.52903372
C        4.61265531       6.36547392      -5.06318261
C        5.00660082       6.55659650      -6.39205966
C        5.32982945       7.83207543      -6.86953905
C        5.22595449       8.93297553      -6.02718494
Br       5.64574321      10.65903114      -6.67683280
C        4.80482586       8.77146853      -4.71167236
C        4.50341845       7.49429203      -4.23378814
N        4.96146131       3.86128739      -4.68893369
N        4.44147161       2.84443185      -3.96052746
C        6.24366086       3.62578098      -5.33624641
N        6.14968010       3.21378440      -6.73290707
N        6.84198994       3.93367522      -7.65322353
C        6.65149867       3.28326985      -8.80644346
C        7.27308909       3.78946234     -10.05361614
C        5.85965117       2.13041789      -8.62324508
Cl       5.40479205       1.02491172      -9.82729317
C        5.56598300       2.08762767      -7.27611091
C        4.79473448       1.08353506      -6.50050787
H        2.13221243      -0.75211495      -1.54228505
H        3.54772533       0.66554846      -2.96452613
H        1.22099930       4.12180385      -1.81257163
H       -0.18205192       2.69758710      -0.40018356
H        2.43698366       5.39056227      -3.36373898
H        5.05015080       5.72741781      -7.09159609
H        5.65059144       7.94804205      -7.90139118
H        4.70480009       9.63115185      -4.05084856
H        4.18103994       7.38966700      -3.20032873
H        6.77222506       2.83190913      -4.79759045
H        6.84120398       4.54055015      -5.26996177
H        6.63876818       3.58612514     -10.92392034
H        8.24212157       3.30559357     -10.21577464
H        7.43261124       4.87068686     -10.00803946
H        5.30512687       0.82091681      -5.56991496
H        4.67253118       0.15505779      -7.06752765
H        3.79299996       1.46208575      -6.27440194
C       -0.88157665      -0.88157665      -0.88157665
C       -2.18278752      -0.48558421      -1.17463936
C       -2.98551049      -1.29434241      -1.98530416
C       -2.49914738      -2.50352960      -2.51338711
C       -1.18519094      -2.88431725      -2.20067916
C       -0.37918433      -2.07753851      -1.38813467
C       -3.35474631      -3.33580805      -3.36772094
C       -3.02291095      -4.50993416      -4.08415431
C       -4.17263697      -4.93917348      -4.72748826
C       -4.36313050      -6.15908904      -5.51909231
C       -5.05864399      -6.16348742      -6.73312557
C       -5.22130969      -7.34615499      -7.46397925
C       -4.65635814      -8.52883714      -7.00091968
Br      -4.86093715     -10.12368040      -7.99698960
C       -3.93274467      -8.54183005      -5.81339204
C       -3.79077792      -7.36368659      -5.07703410
N       -5.12090986      -3.98863984      -4.40213268
N       -4.64935532      -3.04750767      -3.54956793
C       -6.55153643      -3.98406501      -4.67008681
N       -6.93722723      -3.27402076      -5.88512358
N       -7.68664337      -3.94352784      -6.79871748
C       -7.96550765      -3.03535053      -7.74035380
C       -8.78454897      -3.41532407      -8.91629454
C       -7.41883697      -1.77534199      -7.41913518
Cl      -7.56110814      -0.35680954      -8.33907925
C       -6.78060013      -1.94154435      -6.20757709
C       -6.05782956      -0.95302747      -5.36792039
H       -2.58465058       0.44481142      -0.78254337
H       -4.00156342      -0.97128116      -2.20495534
H       -0.76549993      -3.81311287      -2.57676197
H        0.63561477      -2.39221966      -1.15911385
H       -2.06282476      -5.00703505      -4.12142510
H       -5.46963305      -5.24924104      -7.15029060
H       -5.78222009      -7.32328158      -8.39452299
H       -3.47301877      -9.46079977      -5.45298196
H       -3.22548873      -7.39708451      -4.14846242
H       -7.06742347      -3.50108678      -3.83321438
H       -6.89799940      -5.02051779      -4.73319871
H       -8.47395202      -2.86384115      -9.81102050
H       -9.84066665      -3.19500663      -8.72781650
H       -8.69074895      -4.48233169      -9.13825691
H       -6.33505653      -1.04649095      -4.31441116
H       -6.29806843       0.07178926      -5.66883745
H       -4.97587148      -1.07926130      -5.47435487
C       -0.88157665       0.88157665       0.88157665
C       -0.37481613       2.06984719       1.39834776
C       -1.18684451       2.87590447       2.20240808
C       -2.51149781       2.50727185       2.49729442
C       -2.99930244       1.30243107       1.96845384
C       -2.18845996       0.49228104       1.16411650
C       -3.35056410       3.36979173       3.33791946
C       -4.72445811       3.24164188       3.65089943
C       -5.05490477       4.29063784       4.49375610
C       -6.33515840       4.54265272       5.16350073
C       -6.90778170       5.81753444       5.22994085
C       -8.13213205       6.02270036       5.87661152
C       -8.81081215       4.94386289       6.43143991
Br     -10.47372490       5.21784628       7.29003597
C       -8.27675903       3.66247541       6.34873231
C       -7.04492139       3.46576150       5.72081572
N       -3.88424054       5.01446321       4.61297863
N       -2.84507194       4.44294967       3.95840931
C       -3.58124150       6.14081324       5.48363350
N       -3.77688364       7.44995164       4.86953629
N       -4.58089712       8.33651195       5.51147962
C       -4.49828506       9.45713143       4.78579548
C       -5.25739671      10.66274605       5.19602482
C       -3.62029039       9.29996620       3.69305754
Cl      -3.22535330      10.48590622       2.54573741
C       -3.14504592       8.00770328       3.77697238
C       -2.16623146       7.29482540       2.91772056
H        0.64423929       2.38131177       1.18531005
H       -0.77575178       3.80219957       2.59984856
H       -4.01265131       0.96895147       2.17377199
H       -2.58730841      -0.43670018       0.76511051
H       -5.40365980       2.46722761       3.32039750
H       -6.43080686       6.67437028       4.76398756
H       -8.54410826       7.02698810       5.92892830
H       -8.81062486       2.81009344       6.76608219
H       -6.64279075       2.45640270       5.67184222
H       -2.53171883       6.07904548       5.79096033
H       -4.20508911       6.06657955       6.38004724
H       -5.58037585      11.24376003       4.32467778
H       -4.63267388      11.30652764       5.82428825
H       -6.15341596      10.39460444       5.76331716
H       -1.44124834       6.73755541       3.51715490
H       -1.59499550       7.99754010       2.30258102
H       -2.68207432       6.61011687       2.23729646
C        0.88157665      -0.88157665       0.88157665
C        0.46071386      -2.16438559       1.21791164
C        1.27287458      -2.96962613       2.02265635
C        2.51244531      -2.50574424       2.49787453
C        2.91393016      -1.20710195       2.14915523
C        2.10251591      -0.39766546       1.34467614
C        3.35395670      -3.36817475       3.33614384
C        4.66707820      -3.13918408       3.81073714
C        5.02610987      -4.23696245       4.57622640
C        6.25322087      -4.43278000       5.35531098
C        6.95417594      -5.64368576       5.35739528
C        8.12311454      -5.79619320       6.11213618
C        8.61927098      -4.72327143       6.84357255
Br      10.20837063      -4.92360066       7.84963586
C        7.95735539      -3.50028349       6.83032787
C        6.78008059      -3.35895947       6.09245855
N        3.93690366      -5.08262952       4.49214921
N        2.91124384      -4.54853175       3.78665533
C        3.67537673      -6.32313354       5.20717798
N        4.07521260      -7.53004056       4.49111842
N        4.90453706      -8.39770787       5.12664376
C        5.01945186      -9.43357267       4.28818745
C        5.86285461     -10.59551190       4.65780107
C        4.24279173      -9.24453840       3.12598401
Cl       4.09815265     -10.32938154       1.82946274
C        3.62120933      -8.02340833       3.28510392
C        2.65996131      -7.32081438       2.39800173
H       -0.49117443      -2.55034592       0.86321104
H        0.92945969      -3.97061912       2.27772111
H        3.85850433      -0.79908572       2.49778473
H        2.43368164       0.60493645       1.08697355
H        5.28577136      -2.26906574       3.63644781
H        6.62399372      -6.48683227       4.75833871
H        8.63662341      -6.75398054       6.10942071
H        8.34913216      -2.65047997       7.38718836
H        6.27541162      -2.39554687       6.10007717
H        2.60009820      -6.40076910       5.40085733
H        4.19464719      -6.28692590       6.17014281
H        6.33351792     -11.04121560       3.77408014
H        5.25386022     -11.36404194       5.14558762
H        6.66256685     -10.30393620       5.34483451
H        1.82153046      -6.90851937       2.96590881
H        2.23435674      -8.00441892       1.65634096
H        3.16195540      -6.51688670       1.85064555
