174
Properties=species:S:1:pos:R:3 pbc="F F F"
C        1.79254840       1.79254840      -1.79254840
C        1.33914755       2.19139841      -3.04698269
C        2.14886200       3.00230139      -3.84859434
C        3.41176178       3.42645062      -3.40852532
C        3.85066276       2.99800319      -2.14521769
C        3.04683812       2.18877248      -1.33681296
C        4.26329154       4.28595159      -4.25476893
C        5.04454859       5.26104766      -3.74979515
C        5.70857997       5.86392244      -4.88818734
C        6.45800429       7.12628428      -4.87030687
C        7.44716753       7.33203485      -3.89770215
C        8.15752768       8.53389690      -3.84331324
C        7.88102816       9.53881408      -4.76767614
Br       8.84304845      11.16588765      -4.69782807
C        6.89909075       9.35634324      -5.73884041
C        6.18529176       8.15560497      -5.78157330
N        5.25976504       5.18712884      -6.02430012
N        4.26650672       4.11021075      -5.60353361
C        5.76907504       5.20706532      -7.34527069
C        4.92867415       4.86539697      -8.41673704
C        5.38467670       4.87695307      -9.73674525
C        6.70819076       5.21913188     -10.00687035
Cl       7.21838937       5.22049982     -11.66000204
C        7.56990649       5.54162331      -8.95348454
Cl       9.22974385       5.95767461      -9.21626527
C        7.10014446       5.53088327      -7.63616950
H        0.36719394       1.88283516      -3.41724162
H        1.79765708       3.31482909      -4.82976390
H        4.83765790       3.28539060      -1.79361884
H        3.41489023       1.87541022      -0.36548262
H        5.14945482       5.57457947      -2.72851294
H        7.66697688       6.54481302      -3.18034684
H        8.91729222       8.66959136      -3.08014051
H        6.67498244      10.13305971      -6.46302981
H        5.40576811       8.01204387      -6.52765804
H        3.89559268       4.59931196      -8.20229285
H        4.69855080       4.61553788     -10.53595915
H        7.78326536       5.74590772      -6.82112909
C       -1.79254840      -1.79254840      -1.79254840
C       -2.97899510      -2.31429736      -1.28423619
C       -3.78477394      -3.11766744      -2.09731634
C       -3.42063470      -3.40456089      -3.42154213
C       -2.21193337      -2.87740342      -3.90454684
C       -1.40141796      -2.07198813      -3.09901747
C       -4.27488461      -4.24958914      -4.27953831
C       -4.43520811      -4.02204901      -5.59813428
C       -5.33583078      -5.05473200      -6.07012697
C       -6.00678338      -5.07191277      -7.37589929
C       -5.25597531      -4.87672876      -8.54420045
C       -5.87362911      -4.86376113      -9.79734758
C       -7.25145359      -5.04897061      -9.88709418
Br      -8.08976363      -5.03439639     -11.58260414
C       -8.01614091      -5.23974142      -8.73839208
C       -7.39352415      -5.24173400      -7.48721188
N       -5.66013777      -5.84541323      -4.96564300
N       -4.94517507      -5.30030399      -3.73477202
C       -6.29155986      -7.11182401      -4.91802718
C       -6.95232411      -7.51256846      -3.74591560
C       -7.59451886      -8.74938583      -3.65447033
C       -7.57174131      -9.62103520      -4.74141648
Cl      -8.38636294     -11.13815042      -4.57437786
C       -6.90061797      -9.25252324      -5.91187313
Cl      -6.81734303     -10.29412808      -7.29221262
C       -6.26513879      -8.00925077      -5.99280767
H       -3.29111428      -2.11083144      -0.26532501
H       -4.71205448      -3.52760857      -1.70258702
H       -1.89038985      -3.11046080      -4.91581669
H       -0.47383241      -1.67954985      -3.50240082
H       -4.02503069      -3.23090663      -6.19660991
H       -4.17958955      -4.73851457      -8.47403262
H       -5.27095520      -4.70932710     -10.68674178
H       -9.09027450      -5.38387519      -8.79692227
H       -7.98676314      -5.37446719      -6.58423970
H       -6.96870861      -6.82922195      -2.89926694
H       -8.10202306      -9.01528474      -2.73274003
H       -5.71513912      -7.74516972      -6.88999334
C       -1.79254840       1.79254840       1.79254840
C       -2.94092179       2.37425800       1.26234886
C       -3.74704858       3.17737642       2.07533272
C       -3.42122823       3.40454953       3.42095996
C       -2.24990219       2.81751665       3.92646480
C       -1.43938909       2.01192098       3.12111348
C       -4.27593526       4.24945873       4.27861807
C       -4.49165790       3.98200217       5.58173133
C       -5.37217979       5.02947111       6.05903885
C       -6.08888623       5.02533174       7.34037748
C       -5.38806618       4.76249837       8.52633997
C       -6.05069057       4.72815788       9.75588939
C       -7.42355852       4.95980754       9.80415233
Br      -8.32260687       4.91640687      11.46775042
C       -8.13910270       5.21805126       8.63712044
C       -7.47197558       5.24118255       7.40931189
N       -5.62857026       5.86940665       4.97321709
N       -4.88903349       5.34208033       3.74913726
C       -6.21329539       7.15870383       4.94941184
C       -6.81687662       7.62371616       3.77021538
C       -7.41180886       8.88537568       3.70119049
C       -7.39794302       9.71718322       4.81906675
Cl      -8.15257377      11.26765654       4.67866091
C       -6.78283153       9.28404595       5.99813686
Cl      -6.71322124      10.27317257       7.41728992
C       -6.19445164       8.01654890       6.05619669
H       -3.22291374       2.21787584       0.22648114
H       -4.64458916       3.63408885       1.66357207
H       -1.95718929       3.00337880       4.95609925
H       -0.54124612       1.57237638       3.54216056
H       -4.13123061       3.15615408       6.16516254
H       -4.31532464       4.58799790       8.48881420
H       -5.48631431       4.52110733      10.65960243
H       -9.20896774       5.39878840       8.66331583
H       -8.02719505       5.42669227       6.49158271
H       -6.82647469       6.97135990       2.89936289
H       -7.87607825       9.20143827       2.77253131
H       -5.68678978       7.70162202       6.96189038
C        1.79254840      -1.79254840       1.79254840
C        1.34589852      -2.17807831       3.05355182
C        2.15554029      -2.98904417       3.85517327
C        3.41162232      -3.42647487       3.40864053
C        3.84393368      -3.01130474       2.13864521
C        3.04011517      -2.20210995       1.33019843
C        4.26304876      -4.28601642       4.25494687
C        5.03272883      -5.27109349       3.75156908
C        5.70094953      -5.87028666       4.88945356
C        6.44038091      -7.13857852       4.87563601
C        7.42027011      -7.35961781       3.89701660
C        8.12082387      -8.56739134       3.84652262
C        7.84377157      -9.56290101       4.78084581
Br       8.79254561     -11.19795075       4.71626779
C        6.87091562      -9.36520779       5.75815099
C        6.16682324      -8.15862161       5.79702517
N        5.26631558      -5.18119355       6.02368487
N        4.27818976      -4.09983283       5.60222849
C        5.78578275      -5.19485398       7.34077433
C        4.95647688      -4.83830189       8.41602939
C        5.42269741      -4.84317253       9.73250508
C        6.74558760      -5.19359487       9.99501052
Cl       7.26868837      -5.18611426      11.64408860
C        7.59649757      -5.53099762       8.93751916
Cl       9.25505917      -5.95797838       9.19064618
C        7.11653313      -5.52681434       7.62384977
H        0.37930037      -1.85904699       3.42892336
H        1.80961114      -3.29118022       4.84145872
H        4.82588307      -3.30913432       1.78164995
H        3.40297402      -1.89919486       0.35361418
H        5.12719632      -5.59336202       2.73198889
H        7.64056524      -6.57973813       3.17183337
H        8.87351241      -8.71495553       3.07855614
H        6.64645691     -10.13449601       6.49011904
H        5.39430410      -8.00316930       6.54799663
H        3.92384641      -4.56581019       8.20754089
H        4.74490195      -4.57019183      10.53495405
H        7.79156028      -5.75350654       6.80523536
C       -0.00445707       0.01189536      -1.78238275
H       -0.66409135       0.67374010      -2.43557963
H        0.65740317      -0.63156657      -2.45157240
C       -0.90989263      -0.90692880      -0.91072765
C        0.90977584       0.90977584      -0.90977584
C       -0.00465871       1.77757030       0.00794375
H       -0.66225468       2.44313916      -0.64384735
H        0.64322798       2.43503045       0.67728295
C       -1.78241447       0.00034974      -0.00472694
H       -2.45427497      -0.65498947       0.64260836
H       -2.43311707       0.67328779      -0.65473579
C       -0.91132561       0.90220522       0.91563759
C       -0.01476271      -0.02253852       1.78660255
H       -0.67934791      -0.69751639       2.42135241
H        0.63392994       0.61504881       2.47327442
C        0.01484550      -1.77751727      -0.01636693
H        0.67870853      -2.42144646      -0.68295456
H       -0.62264859      -2.45592969       0.64226336
C        1.78714474       0.01002794       0.00389507
H        2.44202412       0.67113390       0.66197326
H        2.45385902      -0.65136977      -0.64189061
C        0.91606151      -0.90478549       0.90901405
