161
Properties=species:S:1:pos:R:3 pbc="F F F"
C        0.00000000       0.00000000       0.00000000
C        0.88264437       0.88264437      -0.88264437
C        0.42924352       1.28149439      -2.13707867
C        1.23895797       2.09239737      -2.93869031
C        2.50185776       2.51654660      -2.49862129
C        2.94075873       2.08809916      -1.23531366
C        2.13693409       1.27886846      -0.42690893
C        3.35338751       3.37604757      -3.34486491
C        4.13464456       4.35114364      -2.83989113
C        4.79867594       4.95401842      -3.97828331
C        5.54810026       6.21638026      -3.96040285
C        6.53726350       6.42213082      -2.98779813
C        7.24762366       7.62399288      -2.93340922
C        6.97112414       8.62891006      -3.85777212
C        5.98918673       8.44643921      -4.82893639
C        5.27538774       7.24570094      -4.87166927
N        4.34986102       4.27722481      -5.11439609
N        3.35660270       3.20030673      -4.69362958
C        4.85917102       4.29716130      -6.43536666
C        4.01877013       3.95549294      -7.50683302
C        4.47477268       3.96704905      -8.82684123
C        5.79828674       4.30922786      -9.09696632
Cl       6.30848534       4.31059579     -10.75009802
C        6.66000246       4.63171929      -8.04358052
Cl       8.31983983       5.04777059      -8.30636125
C        6.19024043       4.62097925      -6.72626548
H       -0.54271008       0.97293113      -2.50733760
H        0.88775306       2.40492507      -3.91985988
H        3.92775388       2.37548658      -0.88371482
H        2.50498620       0.96550620       0.54442140
H        4.23955079       4.66467545      -1.81860892
H        6.75707286       5.63490900      -2.27044281
H        8.00738819       7.75968733      -2.17023648
H        5.76507842       9.22315569      -5.55312578
H        4.49586409       7.10213984      -5.61775402
H        2.98568866       3.68940793      -7.29238882
H        3.78864678       3.70563386      -9.62605512
H        6.87336134       4.83600369      -5.91122507
C        7.70351502       9.86760935      -3.80459643
C        8.31689239      10.90502001      -3.76006178
Br       9.30867171      12.58242530      -3.68805304
C       -0.88264437      -0.88264437      -0.88264437
C       -2.04134572      -1.44858957      -0.35788129
C       -2.84738017      -2.25177285      -1.17089263
C       -2.51116957      -2.49464445      -2.51121163
C       -1.32969793      -1.92335801      -3.01111562
C       -0.51918298      -1.11781055      -2.20571796
C       -3.36575675      -3.33958231      -3.36896092
C       -3.56677830      -3.08241281      -4.67648822
C       -4.45263636      -4.12606829      -5.15227303
C       -5.15728165      -4.12731184      -6.44028988
C       -4.44297806      -3.88221581      -7.62199859
C       -5.09374489      -3.85327774      -8.85800313
C       -6.46822408      -4.07254833      -8.91703390
C       -7.19703059      -4.31309605      -7.75443569
C       -6.54163957      -4.33088433      -6.52023405
N       -4.72705182      -4.95330720      -4.06112290
N       -3.99403673      -4.42139722      -2.83510505
C       -5.32409450      -6.23680931      -4.03079518
C       -5.94300945      -6.68503785      -2.85304880
C       -6.55042000      -7.94038343      -2.77785952
C       -6.53395857      -8.78277902      -3.88774333
Cl      -7.30444080     -10.32475000      -3.73998836
C       -5.90381585      -8.36652917      -5.06495724
Cl      -5.83028510      -9.36958869      -6.47409786
C       -5.30300442      -7.10518211      -5.12929864
H       -2.33150763      -1.27983008       0.67377905
H       -3.75298771      -2.69618880      -0.76336150
H       -1.02915193      -2.12163624      -4.03616710
H        0.38695182      -0.69065403      -2.62236879
H       -3.19315684      -2.26549798      -5.26418034
H       -3.36903709      -3.71738936      -7.57599822
H       -4.51903296      -3.66002700      -9.75825205
H       -8.26825982      -4.48407872      -7.78902135
H       -7.10712339      -4.50254955      -5.60608501
H       -5.95458860      -6.02444486      -1.98845196
H       -7.02629373      -8.24333593      -1.85070610
H       -4.78396708      -6.80355384      -6.03306918
C       -7.14048196      -4.04505397     -10.19018488
C       -7.70349793      -4.02202744     -11.25644882
Br      -8.61384713      -3.98479548     -12.98050744
C       -0.88264437       0.88264437       0.88264437
C       -2.00329373       1.50504144       0.33948142
C       -2.80966174       2.30799679       1.15238712
C       -2.51171854       2.49466184       2.51064527
C       -1.36764984       1.86697293       3.02954879
C       -0.55714567       1.06125027       2.22431555
C       -3.36673379       3.33950590       3.36806029
C       -3.62085609       3.04619550       4.65862773
C       -4.48743280       4.10325852       5.14028635
C       -5.23537577       4.08597288       6.40353473
C       -4.57050164       3.77752308       7.59916773
C       -5.26384495       3.72996705       8.81121376
C       -6.63151961       3.99413543       8.83215127
C       -7.31168577       4.29790590       7.65497065
C       -6.61415474       4.33410662       6.44449659
N       -4.69673418       4.97511416       4.06963358
N       -3.94016086       4.45931019       2.85106795
C       -5.24953270       6.27862254       4.06354374
C       -5.81253205       6.78657370       2.88199034
C       -6.37508218       8.06379926       2.82978151
C       -6.36876378       8.86789947       3.96781768
Cl      -7.08221668      10.43941732       3.84754515
C       -5.79347164       8.39152352       5.15030712
Cl      -5.73508095       9.34423402       6.59465669
C       -5.23734021       7.10888887       5.19125608
H       -2.26336265       1.38059942      -0.70640342
H       -3.68554909       2.79644509       0.73054382
H       -1.09600410       2.02076324       4.07018793
H        0.31952768       0.58972155       2.65587713
H       -3.29486610       2.19793348       5.23003558
H       -3.50166623       3.57760455       7.58315389
H       -4.72704049       3.48741295       9.72285856
H       -8.37721737       4.50425893       7.65988359
H       -7.14198042       4.55524404       5.51853349
H       -5.81635597       6.15577505       1.99535439
H       -6.80860405       8.41343469       1.89829702
H       -4.75985860       6.75987172       6.10085979
C       -7.34755469       3.94752718      10.08063893
C       -7.94723408       3.90849277      11.12624734
Br      -8.91686492       3.84537742      12.81690771
C        0.88264437      -0.88264437       0.88264437
C        0.38825266      -1.37023243       2.08933149
C        1.19844051      -2.18070024       2.89090491
C        2.50280459      -2.51633433       2.49788673
C        2.98160686      -1.99948964       1.28307506
C        2.17772580      -1.19002940       0.47495629
C        3.35502678      -3.37553194       3.34374126
C        4.21170597      -4.28153570       2.83243765
C        4.84847247      -4.90986372       3.97264148
C        5.66406997      -6.12993365       3.93087976
C        6.71074386      -6.23322300       3.00322559
C        7.48600515      -7.39298736       2.92603325
C        7.21704823      -8.45845537       3.78230271
C        6.17889455      -8.37794032       4.70772746
C        5.40085348      -7.21884935       4.77305513
N        4.30730012      -4.31817807       5.11600373
N        3.28061146      -3.27200537       4.69792218
C        4.74944854      -4.38270730       6.45954314
C        3.83888611      -4.14161005       7.50059994
C        4.22747321      -4.20042785       8.84076190
C        5.55197900      -4.48910581       9.16339612
Cl       5.97721497      -4.55277900      10.83918518
C        6.48186134      -4.71096325       8.14247768
Cl       8.14609041      -5.05590297       8.47197828
C        6.07945919      -4.65379917       6.80422680
H       -0.61625776      -1.13142703       2.42238938
H        0.81519487      -2.56246041       3.83488273
H        3.99904498      -2.21741007       0.97050021
H        2.57723066      -0.80710891      -0.45826857
H        4.38472378      -4.53446695       1.80364443
H        6.92429366      -5.39876566       2.33936535
H        8.28956806      -7.44918331       2.19856063
H        5.96015155      -9.20250260       5.37870575
H        4.57803025      -7.15489698       5.48283072
H        2.80526611      -3.91709124       7.24512807
H        3.48882382      -4.01704614       9.61446580
H        6.81343955      -4.79022399       6.01692657
C        8.01618302      -9.65390716       3.70563062
C        8.68545841     -10.65509803       3.64141774
Br       9.76762011     -12.27393899       3.53759095
