182
Properties=species:S:1:pos:R:3 pbc="F F F"
C        1.79254840       1.79254840      -1.79254840
C        1.33914755       2.19139841      -3.04698269
C        2.14886200       3.00230139      -3.84859434
C        3.41176178       3.42645062      -3.40852532
C        3.85066276       2.99800319      -2.14521769
C        3.04683812       2.18877248      -1.33681296
C        4.26329154       4.28595159      -4.25476893
C        5.04454859       5.26104766      -3.74979515
C        5.70857997       5.86392244      -4.88818734
C        6.45800429       7.12628428      -4.87030687
C        7.44716753       7.33203485      -3.89770215
C        8.15752768       8.53389690      -3.84331324
C        7.88102816       9.53881408      -4.76767614
C        6.89909075       9.35634324      -5.73884041
C        6.18529176       8.15560497      -5.78157330
N        5.25976504       5.18712884      -6.02430012
N        4.26650672       4.11021075      -5.60353361
C        5.76907504       5.20706532      -7.34527069
C        4.92867415       4.86539697      -8.41673704
C        5.38467670       4.87695307      -9.73674525
C        6.70819076       5.21913188     -10.00687035
Cl       7.21838937       5.22049982     -11.66000204
C        7.56990649       5.54162331      -8.95348454
Cl       9.22974385       5.95767461      -9.21626527
C        7.10014446       5.53088327      -7.63616950
H        0.36719394       1.88283516      -3.41724162
H        1.79765708       3.31482909      -4.82976390
H        4.83765790       3.28539060      -1.79361884
H        3.41489023       1.87541022      -0.36548262
H        5.14945482       5.57457947      -2.72851294
H        7.66697688       6.54481302      -3.18034684
H        8.91729222       8.66959136      -3.08014051
H        6.67498244      10.13305971      -6.46302981
H        5.40576811       8.01204387      -6.52765804
H        3.89559268       4.59931196      -8.20229285
H        4.69855080       4.61553788     -10.53595915
H        7.78326536       5.74590772      -6.82112909
C        8.61341905      10.77751338      -4.71450045
C        9.22679641      11.81492403      -4.66996581
Br      10.21857573      13.49232933      -4.59795706
C       -1.79254840      -1.79254840      -1.79254840
C       -2.96414200      -2.33830754      -1.27507911
C       -3.77005910      -3.14157524      -2.08812338
C       -3.42087412      -3.40455135      -3.42131226
C       -2.22674494      -2.85342331      -3.91371538
C       -1.41622892      -2.04793675      -3.10825789
C       -4.27530748      -4.24952867      -4.27917591
C       -4.45764670      -4.00574851      -5.59199619
C       -5.35028386      -5.04444359      -6.06596230
C       -6.03951841      -5.05281244      -7.36226459
C       -5.30830601      -4.83047949      -8.53811902
C       -5.94392523      -4.80868580      -9.78212680
C       -7.32014543      -5.01228230      -9.85509065
C       -8.06557652      -5.23012515      -8.69857273
C       -7.42517807      -5.24084738      -7.45644458
N       -5.64760343      -5.85516020      -4.96843037
N       -4.92287560      -5.31728505      -3.74009043
C       -6.26037633      -7.13100964      -4.93002508
C       -6.89861258      -7.55762863      -3.75456696
C       -7.52194660      -8.80466203      -3.67176640
C       -7.50242567      -9.66049714      -4.77127019
Cl      -8.29312270     -11.19130087      -4.61446766
C       -6.85335466      -9.26597944      -5.94568024
Cl      -6.77514664     -10.28673788      -7.34179921
C       -6.23667561      -8.01273627      -6.01778535
H       -3.26450489      -2.15369745      -0.24906839
H       -4.68573697      -3.57024548      -1.68626763
H       -1.91643352      -3.06759189      -4.93264194
H       -0.50012318      -1.63663956      -3.51902033
H       -4.06724979      -3.20047259      -6.18482485
H       -4.23308152      -4.67790045      -8.48115477
H       -5.35625757      -4.63314074     -10.67762576
H       -9.13829960      -5.38875435      -8.74401801
H       -8.00352441      -5.39475243      -6.54719318
H       -6.91252265      -6.88658171      -2.89809313
H       -8.01243128      -9.09074514      -2.74687141
H       -5.70332767      -7.72820921      -6.91876530
C       -7.97682804      -4.99212369     -11.13648114
C       -8.52679972      -4.97524086     -12.20964568
Br      -9.41605741      -4.94794274     -13.94486196
C       -1.79254840       1.79254840       1.79254840
C       -2.92714524       2.39476079       1.25562261
C       -3.73339306       3.19779625       2.06856841
C       -3.42142780       3.40455529       3.42075463
C       -2.26364242       2.79703817       3.93320304
C       -1.45313306       1.99137898       3.12791151
C       -4.27629035       4.24943006       4.27829165
C       -4.51128006       3.96881903       5.57529231
C       -5.38480618       5.02116760       6.05471596
C       -6.11723357       5.01026811       7.32709376
C       -5.43431909       4.72441861       8.51816683
C       -6.11240216       4.68328653       9.73904913
C       -7.48284100       4.93121944       9.77345794
C       -8.18076633       5.21243103       8.60107704
C       -7.49833898       5.24227896       7.38185208
N       -5.61757097       5.87734218       4.97628084
N       -4.86948642       5.35587798       3.75488668
C       -6.18623257       7.17393588       4.96124260
C       -6.76954683       7.66065441       3.78060692
C       -7.34819337       8.93029032       3.71989134
C       -7.33797677       9.74820484       4.84801138
Cl      -8.07190585      11.30944603       4.71753935
C       -6.74274469       9.29321617       6.02905348
Cl      -6.67858820      10.26407510       7.46102043
C       -6.17058551       8.01795765       6.07865407
H       -3.19824184       2.25447454       0.21455434
H       -4.62017353       3.67050086       1.65157569
H       -1.98139113       2.96674381       4.96853241
H       -0.56565582       1.53571926       3.55440799
H       -4.16813641       3.13155972       6.15285110
H       -4.36339877       4.53719137       8.49154660
H       -5.56175699       4.45832485      10.64694224
H       -9.24859520       5.40599641       8.61648036
H       -8.03991817       5.44576079       6.45979107
H       -6.77635526       7.01910698       2.90173526
H       -7.79711349       9.26331848       2.78961586
H       -5.67798282       7.68581006       6.98650930
C       -8.18318571       4.89120575      11.03104141
C       -8.76972441       4.85769427      12.08426757
Br      -9.71810788       4.80350906      13.78724519
C        1.79254840      -1.79254840       1.79254840
C        1.31342873      -2.24528280       3.01881712
C        2.12343288      -3.05592492       3.82039993
C        3.41233304      -3.42633226       3.40807242
C        3.87629426      -2.94419580       2.17339357
C        3.07243858      -2.13482370       1.36516128
C        4.26428240      -4.28565588       4.25407377
C        5.09169201      -5.21933722       3.74436216
C        5.73903346      -5.83747543       4.88418085
C        6.52872313      -7.07473541       4.85113690
C        7.55369652      -7.21839487       3.90481313
C        8.30355569      -8.39525833       3.83592381
C        8.03083406      -9.43738472       4.71929961
C        7.01387011      -9.31671124       5.66369305
C        6.26097350      -8.14070368       5.72079285
N        5.23369665      -5.21170332       6.02579403
N        4.21998003      -4.15321601       5.60705504
C        5.70211915      -5.25813972       7.36115219
C        4.81833410      -4.97724682       8.41522725
C        5.23326355      -5.01693566       9.74817582
C        6.55803747      -5.32633262      10.04982291
Cl       7.01643824      -5.36483660      11.71761638
C        7.46194009      -5.58798527       9.01508898
Cl       9.12529782      -5.96050217       9.31788374
C        7.03320738      -5.54962526       7.68436459
H        0.32105703      -1.97907446       3.36713923
H        1.75212633      -3.41049190       4.77963185
H        4.88243442      -3.18938035       1.84485257
H        3.46024327      -1.77921518       0.41632462
H        5.23825502      -5.49656867       2.71772354
H        7.77033319      -6.40214159       3.21966195
H        9.09061037      -8.48276676       3.09364694
H        6.79238987     -10.12282215       6.35585994
H        5.45445789      -8.04540235       6.44560979
H        3.78441312      -4.73663376       8.17615061
H        4.51462584      -4.80270014      10.53272185
H        7.74784779      -5.71710234       6.88535204
C        8.80384491     -10.65040350       4.65118447
C        9.45124149     -11.66630672       4.59413804
Br      10.49802702     -13.30893632       4.50189879
C       -0.00445707       0.01189536      -1.78238275
H       -0.66409135       0.67374010      -2.43557963
H        0.65740317      -0.63156657      -2.45157240
C       -0.90989263      -0.90692880      -0.91072765
C        0.90977584       0.90977584      -0.90977584
C       -0.00465871       1.77757030       0.00794375
H       -0.66225468       2.44313916      -0.64384735
H        0.64322798       2.43503045       0.67728295
C       -1.78241447       0.00034974      -0.00472694
H       -2.45427497      -0.65498947       0.64260836
H       -2.43311707       0.67328779      -0.65473579
C       -0.91132561       0.90220522       0.91563759
C       -0.01476271      -0.02253852       1.78660255
H       -0.67934791      -0.69751639       2.42135241
H        0.63392994       0.61504881       2.47327442
C        0.01484550      -1.77751727      -0.01636693
H        0.67870853      -2.42144646      -0.68295456
H       -0.62264859      -2.45592969       0.64226336
C        1.78714474       0.01002794       0.00389507
H        2.44202412       0.67113390       0.66197326
H        2.45385902      -0.65136977      -0.64189061
C        0.91606151      -0.90478549       0.90901405
