174
Properties=species:S:1:pos:R:3 pbc="F F F"
C        1.79158950       1.79158950      -1.79158950
C        2.55662901       1.21321404      -2.80176391
C        3.36242164       2.02073145      -3.61163647
C        3.40420819       3.41031729      -3.41817137
C        2.62264243       3.97468067      -2.39937380
C        1.82089189       3.16866581      -1.58433655
C        4.22507766       4.25895530      -4.28355376
N        3.90378792       5.53483851      -4.52788614
N        4.76103220       5.94140280      -5.49760811
C        4.45989034       7.13353875      -6.21794294
C        4.88208977       7.30796576      -7.54081597
C        4.56478729       8.48700858      -8.21804963
Cl       5.07832667       8.69272400      -9.84803116
C        3.83350681       9.49310164      -7.59341332
C        3.39705761       9.30715030      -6.28586432
Cl       2.49839041      10.54936321      -5.50448524
C        3.68839584       8.12860350      -5.59753353
C        5.81909460       5.04744565      -5.65332627
C        5.42980080       3.92348421      -4.94370889
C        7.08390937       5.28261368      -6.36050840
C        7.74961068       6.51630452      -6.27476094
C        8.94996258       6.73300975      -6.95934231
C        9.51351608       5.70269763      -7.70569749
Br      11.13828931       5.99047507      -8.62650130
C        8.89005107       4.45937653      -7.77285890
C        7.67975195       4.25217936      -7.10318598
H        2.52811755       0.14069693      -2.97333517
H        3.93575574       1.55119467      -4.40691860
H        2.63265332       5.05072602      -2.23564690
H        1.22385234       3.62670583      -0.80067402
H        5.41954419       6.52800174      -8.07530978
H        3.59791867      10.41081124      -8.12525695
H        3.33843031       8.00374111      -4.57444654
H        5.98267933       2.99775712      -4.85933303
H        7.34528703       7.32845984      -5.67502096
H        9.43470520       7.70329588      -6.89659748
H        9.33399571       3.64737186      -8.34097555
H        7.20619259       3.27601162      -7.17367701
C       -1.79158950      -1.79158950      -1.79158950
C       -2.49602406      -1.22452731      -2.85105558
C       -3.30173212      -2.03219882      -3.66085862
C       -3.40392666      -3.41084439      -3.41792581
C       -2.68277029      -3.96419417      -2.34973245
C       -1.88134707      -3.15767555      -1.53487162
C       -4.22421684      -4.26115094      -4.28221895
N       -3.94331100      -5.55646950      -4.46673207
N       -4.77910650      -5.96798947      -5.45294715
C       -4.49751805      -7.19719952      -6.11665446
C       -4.87693014      -7.40653736      -7.44740400
C       -4.58029424      -8.62161622      -8.06793505
Cl      -5.04076936      -8.87060681      -9.70770566
C       -3.91173660      -9.62933450      -7.37895067
C       -3.51708655      -9.40960321      -6.06338247
Cl      -2.69623153     -10.65327685      -5.20273049
C       -3.78822414      -8.19555326      -5.43075546
C       -5.79561148      -5.04218068      -5.68207436
C       -5.38996441      -3.90697144      -5.00005805
C       -7.04152323      -5.25741413      -6.42809409
C       -7.75678476      -6.46146529      -6.32242611
C       -8.93845185      -6.65977688      -7.04408591
C       -9.43409379      -5.63874189      -7.84907552
Br     -11.03357816      -5.90140615      -8.82028136
C       -8.76132585      -4.42280034      -7.93816030
C       -7.56953961      -4.23492290      -7.23065477
H       -2.42006075      -0.16116971      -3.06091919
H       -3.82684998      -1.57265891      -4.49436013
H       -2.74010482      -5.03205960      -2.14686182
H       -1.33168694      -3.60705679      -0.71248846
H       -5.36394434      -6.62833023      -8.03058115
H       -3.69204384     -10.57485315      -7.86708988
H       -3.47176798      -8.04454346      -4.40030653
H       -5.90965533      -2.95889211      -4.97122204
H       -7.40635837      -7.26439527      -5.67801419
H       -9.46205476      -7.60836643      -6.96417738
H       -9.15249125      -3.61734339      -8.55250848
H       -7.05659218      -3.28034410      -7.31894494
C       -1.79158950       1.79158950       1.79158950
C       -1.84693207       3.16411258       1.56056230
C       -2.65662712       3.97199269       2.36616975
C       -3.41769838       3.41128372       3.40371477
C       -3.35284927       2.02655343       3.61729420
C       -2.53927267       1.21755418       2.81706740
C       -4.28698421       4.25194625       4.22865626
N       -5.39280986       3.76763893       4.80606378
N       -6.03255373       4.84840969       5.31907970
C       -7.40101813       4.71629669       5.69405721
C       -8.27460044       5.80870799       5.64756307
C       -9.61056845       5.64183435       6.01744270
Cl     -10.68317256       6.98637522       5.94953405
C      -10.08547504       4.40135731       6.43318942
C       -9.21955085       3.31308457       6.45743681
Cl      -9.79759500       1.77774368       6.97690019
C       -7.88500274       3.45487960       6.07465052
C       -5.20277892       5.96799744       5.34909016
C       -4.11609998       5.61444272       4.56645120
C       -5.41621512       7.21198001       6.09883633
C       -5.94103917       7.19816000       7.40147698
C       -6.14852025       8.38966961       8.10412478
C       -5.79653564       9.60346941       7.52190615
Br      -6.06978657      11.21431750       8.47116161
C       -5.23870695       9.63711901       6.24646054
C       -5.05089096       8.44539874       5.53882759
H       -1.27341681       3.61394544       0.75478740
H       -2.70058059       5.03755973       2.15572870
H       -3.94016913       1.56807093       4.41078617
H       -2.50362388       0.14726340       3.00034490
H       -7.95045236       6.78310862       5.28929474
H      -11.12474619       4.28229836       6.72694231
H       -7.22374790       2.59072703       6.10214304
H       -3.27046883       6.24410140       4.32519925
H       -6.19743068       6.26107988       7.89025727
H       -6.57741889       8.35543694       9.10174274
H       -4.94768999      10.58048366       5.79416947
H       -4.61970168       8.49425696       4.54192259
C        1.79158950      -1.79158950       1.79158950
C        1.85905850      -3.16186910       1.55067935
C        2.66877052      -3.96971837       2.35630067
C        3.41775490      -3.41117819       3.40376378
C        3.34081860      -2.02863140       3.62724691
C        2.52717633      -1.21973298       2.82698494
C        4.28715726      -4.25150656       4.22892291
N        5.38491309      -3.76328835       4.81831113
N        6.02894902      -4.84307437       5.32801973
C        7.39351699      -4.70352370       5.71433135
C        8.27567118      -5.78895535       5.66624497
C        9.60751969      -5.61485164       6.04747417
Cl      10.69075453      -6.95074061       5.97758669
C       10.06988133      -4.37402424       6.47611620
C        9.19558335      -3.29250489       6.50198399
Cl       9.75806436      -1.75684068       7.03733382
C        7.86506175      -3.44142302       6.10804809
C        5.20747386      -5.96906181       5.34333084
C        4.12406142      -5.61776769       4.55516479
C        5.42468314      -7.21704689       6.08530143
C        5.93958269      -7.20914747       7.39194598
C        6.15079381      -8.40435068       8.08717015
C        5.81239627      -9.61631794       7.49319698
Br       6.09069552     -11.23220888       8.43236128
C        5.26443973      -9.64449979       6.21334698
C        5.07292846      -8.44890040       5.51328843
H        1.29503799      -3.60988496       0.73722670
H        2.72237196      -5.03330088       2.13819617
H        3.91866974      -1.57176964       4.42858686
H        2.48204747      -0.15115888       3.01802583
H        7.96161266      -6.76302371       5.29821935
H       11.10598407      -4.24938585       6.77861694
H        7.19709421      -2.58249747       6.13702628
H        3.28505955      -6.25191900       4.30279093
H        6.18519024      -6.27389502       7.88968257
H        6.57191123      -8.37445094       9.08823639
H        4.98398206     -10.58657296       5.75178810
H        4.64962591      -8.49344747       4.51280784
C       -0.00445707       0.01189536      -1.78238275
H       -0.66409135       0.67374010      -2.43557963
H        0.65740317      -0.63156657      -2.45157240
C       -0.90989263      -0.90692880      -0.91072765
C        0.90977584       0.90977584      -0.90977584
C       -0.00465871       1.77757030       0.00794375
H       -0.66225468       2.44313916      -0.64384735
H        0.64322798       2.43503045       0.67728295
C       -1.78241447       0.00034974      -0.00472694
H       -2.45427497      -0.65498947       0.64260836
H       -2.43311707       0.67328779      -0.65473579
C       -0.91132561       0.90220522       0.91563759
C       -0.01476271      -0.02253852       1.78660255
H       -0.67934791      -0.69751639       2.42135241
H        0.63392994       0.61504881       2.47327442
C        0.01484550      -1.77751727      -0.01636693
H        0.67870853      -2.42144646      -0.68295456
H       -0.62264859      -2.45592969       0.64226336
C        1.78714474       0.01002794       0.00389507
H        2.44202412       0.67113390       0.66197326
H        2.45385902      -0.65136977      -0.64189061
C        0.91606151      -0.90478549       0.90901405
