161
Properties=species:S:1:pos:R:3 pbc="F F F"
C        0.00000000       0.00000000       0.00000000
C        0.88168547       0.88168547      -0.88168547
C        1.64672499       0.30331001      -1.89185988
C        2.45251762       1.11082742      -2.70173244
C        2.49430417       2.50041327      -2.50826735
C        1.71273841       3.06477665      -1.48946978
C        0.91098786       2.25876179      -0.67443252
C        3.31517364       3.34905127      -3.37364974
N        2.99388390       4.62493448      -3.61798212
N        3.85112818       5.03149878      -4.58770409
C        3.54998632       6.22363472      -5.30803892
C        3.97218574       6.39806173      -6.63091195
C        3.65488326       7.57710456      -7.30814561
Cl       4.16842264       7.78281998      -8.93812714
C        2.92360278       8.58319762      -6.68350930
C        2.48715358       8.39724628      -5.37596030
Cl       1.58848639       9.63945919      -4.59458122
C        2.77849182       7.21869947      -4.68762950
C        4.90919058       4.13754162      -4.74342224
C        4.51989678       3.01358018      -4.03380486
C        6.17400535       4.37270966      -5.45060438
C        6.83970666       5.60640050      -5.36485692
C        8.04005856       5.82310573      -6.04943829
C        8.60361205       4.79279360      -6.79579347
C        7.98014705       3.54947250      -6.86295488
C        6.76984793       3.34227533      -6.19328195
H        1.61821353      -0.76920710      -2.06343115
H        3.02585172       0.64129065      -3.49701458
H        1.72274929       4.14082200      -1.32574288
H        0.31394831       2.71680180       0.10923000
H        4.50964017       5.61809771      -7.16540576
H        2.68801465       9.50090721      -7.21535293
H        2.42852629       7.09383709      -3.66454251
H        5.07277530       2.08785309      -3.94942901
H        6.43538301       6.41855581      -4.76511693
H        8.52480118       6.79339186      -5.98669346
H        8.42409169       2.73746783      -7.43107152
H        6.29628856       2.36610760      -6.26377299
C        9.84179736       5.01209916      -7.49750724
C       10.87877756       5.19576756      -8.08519252
Br      12.55548683       5.49274384      -9.03542991
C       -0.88168547      -0.88168547      -0.88168547
C       -0.83469968      -0.74054488      -2.26665032
C       -1.64012772      -1.54990052      -3.07504925
C       -2.49316899      -2.50665786      -2.50315794
C       -2.52247083      -2.63753385      -1.10698015
C       -1.72264617      -1.82522716      -0.29630885
C       -3.31494807      -3.37332992      -3.34959667
N       -3.68464403      -4.59736353      -2.95479294
N       -4.25979237      -5.16712102      -4.04341765
C       -4.44694646      -6.57977719      -4.05493630
C       -4.44546872      -7.30194743      -5.25374328
C       -4.62676325      -8.68610759      -5.22726260
Cl      -4.61474875      -9.57094232      -6.70367868
C       -4.80998189      -9.35807687      -4.02225093
C       -4.78922875      -8.63991479      -2.83121662
Cl      -5.02197639      -9.46269121      -1.33785920
C       -4.59165756      -7.25839287      -2.83477036
C       -4.54093018      -4.22129108      -5.02793319
C       -3.85305585      -3.08833685      -4.62588913
C       -5.42208337      -4.38450577      -6.19073025
C       -6.63852723      -5.07961840      -6.09281845
C       -7.46693075      -5.23683968      -7.20883214
C       -7.10166571      -4.66628675      -8.42424666
C       -5.91861261      -3.94004658      -8.53391524
C       -5.08292632      -3.80151150      -7.42096740
H       -0.17207255      -0.01304703      -2.72731800
H       -1.57296468      -1.43706569      -4.15412658
H       -3.17019021      -3.37797008      -0.64115388
H       -1.76145920      -1.94309641       0.78303550
H       -4.26453054      -6.81788162      -6.21073149
H       -4.95839577     -10.43437062      -4.01150839
H       -4.58013107      -6.71515537      -1.89161945
H       -3.80262517      -2.14857024      -5.15886199
H       -6.96099948      -5.51035248      -5.14770379
H       -8.39209189      -5.79853406      -7.11426054
H       -5.63702144      -3.47947576      -9.47613384
H       -4.16073115      -3.23591259      -7.52952541
C       -7.95529286      -4.82276188      -9.57334902
C       -8.67020560      -4.95380980     -10.53572224
Br      -9.82615903      -5.16570321     -12.09179835
C       -0.88168547       0.88168547       0.88168547
C       -1.57812911       1.94736579       0.31639998
C       -2.38821521       2.75376420       1.12309808
C       -2.50904469       2.49633972       2.49760038
C       -1.80420493       1.41545756       3.04732233
C       -0.98877752       0.61148726       2.24391740
C       -3.37877679       3.32218381       3.33691405
N       -3.95919148       2.83688161       4.44072741
N       -4.82236277       3.80180760       4.84616067
C       -5.83570217       3.45850012       5.78745767
C       -7.06387203       4.12920390       5.80808349
C       -8.03596271       3.76309586       6.74107487
Cl      -9.54839695       4.58479896       6.75617384
C       -7.79881415       2.73862150       7.65287405
C       -6.58530980       2.05984429       7.61520607
Cl      -6.28202112       0.79670119       8.74380449
C       -5.60745314       2.39851132       6.67885634
C       -4.57641977       5.01269129       4.20104339
C       -3.71480153       4.68526593       3.16721436
C       -5.07525155       6.33968592       4.58238191
C       -5.15004566       6.73208442       5.92883399
C       -5.63485492       7.99566334       6.28208431
C       -6.01364344       8.89152528       5.28703040
C       -5.91117764       8.53710838       3.94428841
C       -5.44459698       7.26563881       3.59516943
H       -1.50547872       2.15465308      -0.74769421
H       -2.93859015       3.56762426       0.65794254
H       -1.88853648       1.19159241       4.10918527
H       -0.45125611      -0.22033572       2.69059972
H       -7.30118600       4.90656317       5.08539448
H       -8.55787802       2.46561991       8.38077686
H       -4.66415396       1.85553370       6.66721823
H       -3.32418579       5.36433986       2.42153176
H       -4.83324915       6.06151987       6.72428674
H       -5.70526217       8.26818737       7.33143696
H       -6.19051150       9.23842357       3.16369597
H       -5.37823285       7.00663858       2.54129772
C       -6.50852539      10.19469982       5.64817855
C       -6.92298902      11.28610849       5.95064013
Br      -7.59314166      13.05082401       6.43969492
C        0.88168547      -0.88168547       0.88168547
C        0.93212411      -2.25507150       0.65469927
C        1.74181217      -3.06296413       1.46030120
C        2.50777109      -2.50142249       2.49379121
C        2.44780983      -1.11585356       2.70332145
C        1.63426017      -0.30681346       1.90310854
C        3.37700846      -3.34222083       3.31864536
N        4.48607428      -2.85954353       3.89118269
N        5.12408162      -3.94069750       4.40555193
C        6.49408664      -3.81163516       4.77593816
C        7.36417926      -4.90685663       4.73012354
C        8.70177880      -4.74294992       5.09540471
Cl       9.77005507      -6.09097423       5.02834046
C        9.18174710      -3.50266978       5.50589282
C        8.31923167      -2.41167831       5.52945018
Cl       8.90355579      -0.87653627       6.04243474
C        6.98308910      -2.55055044       5.15118126
C        4.29098458      -5.05763904       4.44153083
C        3.20299698      -4.70314816       3.66113669
C        4.50291516      -6.29997273       5.19443150
C        5.03177027      -6.28378036       6.49541344
C        5.23776179      -7.47376727       7.20107352
C        4.88028548      -8.68825611       6.62365754
C        4.31844881      -8.72409356       5.35003206
C        4.13210757      -7.53397152       4.63932613
H        0.35476890      -2.70560467      -0.14793600
H        1.78186313      -4.12929915       1.25299467
H        3.03895829      -0.65675070       3.49360518
H        1.60244496       0.76413677       2.08321192
H        7.03595755      -5.88134938       4.37583672
H       10.22227302      -3.38590036       5.79610141
H        6.32456602      -1.68429461       5.17804526
H        2.35470955      -5.33094572       3.42440213
H        5.29252210      -5.34600113       6.98053252
H        5.66981961      -7.43780065       8.19726624
H        4.02316451      -9.66793958       4.90152695
H        3.69771660      -7.58455436       3.64389819
C        5.08698467      -9.91424539       7.35017370
C        5.26009525     -10.94101141       7.95863098
Br       5.54000041     -12.60120522       8.94245495
