161
Properties=species:S:1:pos:R:3 pbc="F F F"
C        0.00000000       0.00000000       0.00000000
C        0.88255179       0.88255179      -0.88255179
C        0.52190559       1.11927096      -2.20586890
C        1.33739037       1.92145925      -3.01081050
C        2.51839236       2.49289138      -2.51118619
C        2.84828700       2.25048860      -1.16690911
C        2.04126833       1.44632535      -0.35618304
C        3.38243215       3.32812694      -3.37251011
C        4.72323984       3.38075651      -3.23557942
C        5.18966973       4.30533235      -4.25208669
C        6.49692884       4.97499941      -4.24727055
C        6.60944483       6.36993056      -4.31181278
C        7.86264297       6.98824181      -4.27766524
C        9.01205451       6.20945903      -4.16536204
C        8.92109950       4.82110497      -4.08816704
C        7.66514413       4.20910955      -4.12824212
N        4.06660119       4.70482702      -4.97407475
N        2.82322383       4.07152650      -4.36594867
C        3.97405961       5.50498558      -6.14044849
C        2.91559253       6.43654231      -6.20229217
C        2.74873157       7.29974571      -7.28705773
C        3.64230697       7.23775957      -8.34670348
Cl       3.45327215       8.30001199      -9.68913337
C        4.67942341       6.31043428      -8.33918643
C        4.83994916       5.43833814      -7.25028453
Cl       6.07079318       4.23084956      -7.43911243
H       -0.38139336       0.69212918      -2.62780496
H        1.05831445       2.10306056      -4.04663443
H        3.74002416       2.70250446      -0.74111062
H        2.32811250       1.27563298       0.67594636
H        5.34864109       2.87637393      -2.52463630
H        5.70729107       6.97479753      -4.37876504
H        7.92177497       8.07065432      -4.33393938
H        9.81110588       4.20516895      -3.99921533
H        7.59332467       3.12554229      -4.07898723
H        2.22208144       6.48426752      -5.36472748
H        1.92408997       8.00501748      -7.28627209
H        5.35458274       6.24515280      -9.18629121
C       10.30448073       6.84298075      -4.12194911
C       11.38688769       7.37355520      -4.08559079
Br      13.13704820       8.23144921      -4.02680245
C       -0.88255179      -0.88255179      -0.88255179
C       -2.08032438      -1.38466350      -0.38205757
C       -2.88003026      -2.19791976      -1.19171011
C       -2.49726539      -2.52231900      -2.50288554
C       -1.29141009      -1.98730202      -2.98697260
C       -0.48358841      -1.17699909      -2.18318921
C       -3.34124857      -3.39421170      -3.34760892
C       -2.83309120      -4.23158914      -4.27489542
C       -3.97431974      -4.89251273      -4.88025630
C       -3.95884690      -5.58470732      -6.17564458
C       -4.84577254      -5.24117606      -7.20423956
C       -4.79530145      -5.89399421      -8.43925438
C       -3.84408777      -6.88861090      -8.65417690
C       -2.94526614      -7.23711947      -7.64798590
C       -3.00479318      -6.58400395      -6.41369868
N       -5.10573550      -4.42650517      -4.21326228
N       -4.69267746      -3.38084413      -3.18717741
C       -6.45936225      -4.83082366      -4.32930778
C       -7.44122683      -3.81751899      -4.29568119
C       -8.80197485      -4.09731431      -4.43624585
C       -9.20999365      -5.41282306      -4.60395331
Cl     -10.88438944      -5.77332223      -4.78470584
C       -8.27601757      -6.44396894      -4.60905761
C       -6.90886621      -6.16007319      -4.45963245
Cl      -5.87184386      -7.54394834      -4.32496296
H       -2.40727011      -1.15832479       0.62705412
H       -3.81419028      -2.59443164      -0.79938752
H       -0.98126608      -2.19483221      -4.00754096
H        0.44368375      -0.78464566      -2.58683720
H       -1.80858268      -4.39006240      -4.55100623
H       -5.57346434      -4.44928474      -7.03810455
H       -5.49722322      -5.61155166      -9.21759379
H       -2.19919110      -8.01029731      -7.80600174
H       -2.31128347      -6.86234738      -5.62422333
H       -7.11367435      -2.78711321      -4.17028888
H       -9.51965051      -3.28380794      -4.41192110
H       -8.60529733      -7.47333420      -4.70739522
C       -3.78367222      -7.55807502      -9.92766336
C       -3.73307420      -8.11875121     -10.99420827
Br      -3.65126148      -9.02531719     -12.71872119
C       -0.88255179       0.88255179       0.88255179
C       -0.34063633       1.50069221       2.00571690
C       -1.15492218       2.30096970       2.81376824
C       -2.51356456       2.49240502       2.51650034
C       -3.02894822       1.86972038       1.36701612
C       -2.22334715       1.06450911       0.55592045
C       -3.37109748       3.32841581       3.38355590
C       -4.68440080       3.08448714       3.57068782
C       -5.15585031       4.12052180       4.47071666
C       -6.56230506       4.50159819       4.65529555
C       -6.99732982       5.82076940       4.47308895
C       -8.34557984       6.15639429       4.62657590
C       -9.26921512       5.16577252       4.95188793
C       -8.85873898       3.84557110       5.12606143
C       -7.50826027       3.51792992       4.97630562
N       -4.04616540       4.89457513       4.80476242
N       -2.82836450       4.38594696       4.04638754
C       -3.92705790       5.95760164       5.73483414
C       -3.13693857       7.06337621       5.35411222
C       -2.97847451       8.18080754       6.17625296
C       -3.60642107       8.20709953       7.41324942
Cl      -3.42544338       9.58087345       8.43610068
C       -4.36673494       7.12276056       7.83954862
C       -4.51781201       5.99710122       7.01365860
Cl      -5.35561241       4.65690430       7.72823845
H        0.70384017       1.37341702       2.26896393
H       -0.73289612       2.78068664       3.69442669
H       -4.06926540       2.02193036       1.09244348
H       -2.65469990       0.59454939      -0.32145018
H       -5.29351067       2.31016703       3.14597361
H       -6.27494159       6.58704854       4.19886351
H       -8.65517032       7.18700615       4.48419219
H       -9.57115721       3.06576301       5.37856994
H       -7.18497025       2.49040007       5.12248387
H       -2.65243693       7.03890359       4.37973591
H       -2.36740808       9.01087558       5.83709588
H       -4.82766033       7.13644888       8.82191755
C      -10.66024890       5.50596436       5.10319733
C      -11.82523969       5.79087503       5.22991896
Br     -13.70893127       6.25155148       5.43481712
C        0.88255179      -0.88255179       0.88255179
C        2.02224706      -1.47657238       0.34822601
C        2.82179177      -2.28926224       1.15860611
C        2.49625393      -2.52194739       2.50426861
C        1.34932410      -1.89553552       3.02082509
C        0.54185931      -1.08502630       2.21689110
C        3.33880191      -3.39371820       3.35054909
C        2.83965661      -4.15116478       4.34875438
C        3.97635701      -4.84186226       4.92886951
C        3.99668216      -5.46260801       6.25990863
C        4.95661993      -5.11522951       7.21933873
C        4.94076076      -5.69795427       8.48983501
C        3.95175454      -6.62510817       8.81001286
C        2.98094442      -6.97559933       7.87382776
C        3.00588908      -6.39304554       6.60356120
N        5.09180813      -4.47573495       4.17795987
N        4.67796841      -3.46438140       3.11834919
C        6.42651497      -4.94834177       4.24463694
C        7.45719880      -3.99467630       4.10255190
C        8.80696354      -4.34222979       4.18634167
C        9.15354567      -5.66776188       4.40546247
Cl      10.81400401      -6.11117715       4.51723636
C        8.16807095      -6.64340014       4.51757302
C        6.81164375      -6.29186939       4.42505870
Cl       5.69695809      -7.62082881       4.42296826
H        2.30381948      -1.32255784      -0.68783655
H        3.71028618      -2.75754539       0.74017787
H        1.08613873      -2.03112988       4.06637063
H       -0.33935492      -0.62067493       2.64647910
H        1.82522745      -4.23732194       4.68710193
H        5.71476749      -4.37513085       6.97095530
H        5.69902960      -5.41438706       9.21295202
H        2.20500455      -7.69644246       8.11404313
H        2.25560208      -6.67358491       5.86866720
H        7.17812524      -2.95565891       3.93729228
H        9.56419104      -3.57251811       4.07867038
H        8.44741019      -7.68290793       4.65570864
C        3.92724914      -7.22183862      10.12032284
C        3.90672586      -7.72160038      11.21770745
Br       3.87354145      -8.52967286      12.99208556
