182
Properties=species:S:1:pos:R:3 pbc="F F F"
C        1.79217369       1.79217369      -1.79217369
C        1.93940386       1.48745091      -3.14316359
C        2.73025112       2.30350775      -3.94955980
C        3.37266574       3.41841184      -3.40198882
C        3.24431628       3.72201051      -2.03841934
C        2.43624174       2.89923978      -1.23850076
C        3.88621265       4.90543605      -1.45598904
N        3.26417986       5.59204119      -0.49011369
N        4.01988773       6.69760813      -0.27847118
C        3.47975120       7.72778358       0.54628055
C        2.55112041       7.38207033       1.54277915
C        2.02437931       8.36045413       2.38778753
C        2.39494546       9.69385235       2.22148711
C        3.28559306      10.04270407       1.20765823
Cl       3.71119403      11.69557837       0.98193250
C        3.83209565       9.07071248       0.36809422
C        5.24572412       6.62757146      -0.93984918
C        6.39791238       7.52097334      -0.73627053
C        6.82896267       7.86267449       0.55559777
C        7.92369303       8.71086073       0.74579136
C        8.62667428       9.19907772      -0.35286443
C        8.22477462       8.84262228      -1.63698436
C        7.11293212       8.02095663      -1.83374862
C        5.15749675       5.48032468      -1.71777490
Cl       6.37292982       4.81708535      -2.71643668
H        1.43732553       0.62641322      -3.57696624
H        2.83977119       2.07972345      -5.00794474
H        3.95406532       4.05397517      -4.06542151
H        2.30434186       3.13118015      -0.18389188
H        2.25137969       6.34469616       1.69169052
H        1.32571894       8.08167770       3.17316793
H        1.97827877      10.45468132       2.87607881
H        4.49093291       9.38605815      -0.43478254
H        6.31663565       7.47682100       1.43479738
H        8.23167501       8.98303833       1.75288923
H        9.48578461       9.84685599      -0.19794262
H        6.81286034       7.76717592      -2.84749348
C        8.96814193       9.31989641      -2.77418023
C        9.59071206       9.71961350      -3.72658177
Br      10.59735529      10.36592222      -5.26653451
C       -1.79217369      -1.79217369      -1.79217369
C       -2.73138576      -2.63529696      -1.20333564
C       -3.54692877      -3.42585676      -2.01053314
C       -3.41840177      -3.37266011      -3.40200451
C       -2.46254785      -2.53973648      -4.00246180
C       -1.65441874      -1.73985289      -3.17971065
C       -2.33706866      -2.44939374      -5.46117534
N       -2.03838956      -1.27616448      -6.03178071
N       -2.15144232      -1.47663124      -7.36789348
C       -2.10590726      -0.33471117      -8.22063580
C       -1.39234718       0.79970376      -7.79776817
C       -1.30180809       1.92443121      -8.61966904
C       -1.95085623       1.93671027      -9.85316474
C       -2.69166074       0.82679296     -10.25577111
Cl      -3.52260964       0.86100080     -11.76323106
C       -2.77473945      -0.30994644      -9.45002802
C       -2.30338955      -2.82665183      -7.68310337
C       -2.20584610      -3.42447664      -9.02483350
C       -1.16032532      -3.07947491      -9.89623916
C       -1.07002983      -3.64919148     -11.16954111
C       -2.00248693      -4.60069348     -11.57543602
C       -3.02597052      -4.97077158     -10.70763916
C       -3.13920771      -4.38194074      -9.44648892
C       -2.44312044      -3.45839695      -6.45407894
Cl      -2.60269758      -5.13413733      -6.16961694
H       -2.84151306      -2.67651638      -0.12267555
H       -4.29142142      -4.07705893      -1.55895904
H       -4.09335918      -3.97609788      -4.00400495
H       -0.92355771      -1.06933408      -3.62652210
H       -0.87454496       0.80878093      -6.83862129
H       -0.72655614       2.78894855      -8.29662112
H       -1.88465496       2.81604157     -10.48826788
H       -3.39350005      -1.13852278      -9.77975078
H       -0.40137359      -2.35842596      -9.59885972
H       -0.26605898      -3.35514492     -11.84062021
H       -1.91859111      -5.05048419     -12.56150793
H       -3.95492268      -4.68017574      -8.79243132
C       -3.97336092      -5.97713552     -11.11172213
C       -4.76680039      -6.81996531     -11.45014162
Br      -6.04972489      -8.18274981     -11.99733731
C       -1.79217369       1.79217369       1.79217369
C       -1.57713611       1.82506940       3.16781286
C       -2.37135978       2.64375051       3.96820839
C       -3.37856727       3.42346127       3.39103786
C       -3.61369805       3.38239756       2.00865052
C       -2.80015035       2.56256512       1.21126681
C       -4.64529031       4.21785739       1.38449004
N       -4.43278905       4.74204328       0.17150242
N       -5.47615834       5.57704332      -0.05723463
C       -5.40139484       6.44552947      -1.18567008
C       -4.63782550       6.04959921      -2.29701312
C       -4.56639266       6.86120854      -3.43055529
C       -5.22835686       8.08774704      -3.44879320
C       -5.95335483       8.49886756      -2.33158350
Cl      -6.73807426      10.03122890      -2.34446326
C       -6.04621040       7.68785819      -1.19935467
C       -6.48064121       5.43303697       0.89946656
C       -7.84162116       5.98913704       0.82439804
C       -8.60015281       5.88879428      -0.35290769
C       -9.89243270       6.41737536      -0.42104566
C      -10.45915813       7.02027075       0.69918755
C       -9.72589522       7.09874109       1.87974494
C       -8.42300433       6.60038479       1.94424825
C       -5.94134474       4.56976897       1.84448262
Cl      -6.71344206       3.95537447       3.23763531
H       -0.79144007       1.22694236       3.62232256
H       -2.20127618       2.68481066       5.04135255
H       -3.95732446       4.07727972       4.03885783
H       -2.95045372       2.53473951       0.13422065
H       -4.11599441       5.09262247      -2.30423156
H       -3.99432875       6.53644339      -4.29654343
H       -5.16563716       8.72097484      -4.32973073
H       -6.58660637       8.05979186      -0.33462462
H       -8.19531096       5.40067440      -1.23732610
H      -10.45878201       6.35033487      -1.34729276
H      -11.46981994       7.41676187       0.64400142
H       -7.86754328       6.68490780       2.87507866
C      -10.32006422       7.69308591       3.04906844
C      -10.81768076       8.19084970       4.02837687
Br     -11.62228461       8.99569164       5.61183577
C        1.79217369      -1.79217369       1.79217369
C        2.90058738      -2.42948682       1.23994416
C        3.71373492      -3.21932512       2.05025863
C        3.41414920      -3.37118744       3.40772976
C        2.28936610      -2.74746787       3.96791216
C        1.48410000      -1.94546402       3.14441826
C        1.97971680      -2.87155825       5.39636269
N        1.45866580      -1.83070413       6.05696482
N        1.43771425      -2.19572962       7.36252316
C        1.13624136      -1.19377063       8.33124223
C        0.33089213      -0.10573573       7.95378372
C       -0.00883237       0.87813208       8.88401037
C        0.48075424       0.80020411      10.18676057
C        1.31199110      -0.25773712      10.55091068
Cl       1.94483414      -0.32958604      12.15041971
C        1.64408124      -1.25650193       9.63413074
C        1.73279606      -3.54819096       7.53215773
C        1.55797493      -4.32991402       8.76726729
C        0.37890824      -4.23355424       9.52357691
C        0.21556195      -4.97747995      10.69572051
C        1.21340440      -5.85720191      11.10801012
C        2.37376962      -5.98134342      10.34926822
C        2.55563651      -5.21753113       9.19446972
C        2.10254937      -3.98606699       6.26697998
Cl       2.52086312      -5.57658820       5.80900053
H        3.14338170      -2.31022308       0.18710021
H        4.58821495      -3.70972888       1.62949555
H        4.08810097      -3.96590032       4.01946071
H        0.62097354      -1.43378936       3.56465099
H       -0.06522738      -0.02838541       6.94122729
H       -0.65342344       1.70365883       8.59131098
H        0.22055137       1.57096986      10.90729978
H        2.32579079      -2.04239607       9.94358675
H       -0.42994869      -3.57452747       9.21408049
H       -0.69512245      -4.87523933      11.28170723
H        1.07433228      -6.44342850      12.01282245
H        3.47641015      -5.32480081       8.62631878
C        3.39396171      -6.91299746      10.75525940
C        4.24837259      -7.69325772      11.09527701
Br       5.62988273      -8.95487256      11.64505673
C       -0.00445707       0.01189536      -1.78238275
H       -0.66409135       0.67374010      -2.43557963
H        0.65740317      -0.63156657      -2.45157240
C       -0.90989263      -0.90692880      -0.91072765
C        0.90977584       0.90977584      -0.90977584
C       -0.00465871       1.77757030       0.00794375
H       -0.66225468       2.44313916      -0.64384735
H        0.64322798       2.43503045       0.67728295
C       -1.78241447       0.00034974      -0.00472694
H       -2.45427497      -0.65498947       0.64260836
H       -2.43311707       0.67328779      -0.65473579
C       -0.91132561       0.90220522       0.91563759
C       -0.01476271      -0.02253852       1.78660255
H       -0.67934791      -0.69751639       2.42135241
H        0.63392994       0.61504881       2.47327442
C        0.01484550      -1.77751727      -0.01636693
H        0.67870853      -2.42144646      -0.68295456
H       -0.62264859      -2.45592969       0.64226336
C        1.78714474       0.01002794       0.00389507
H        2.44202412       0.67113390       0.66197326
H        2.45385902      -0.65136977      -0.64189061
C        0.91606151      -0.90478549       0.90901405
