161
Properties=species:S:1:pos:R:3 pbc="F F F"
C        0.00000000       0.00000000       0.00000000
C        0.88226966       0.88226966      -0.88226966
C        1.02949984       0.57754688      -2.23325956
C        1.82034710       1.39360373      -3.03965577
C        2.46276172       2.50850781      -2.49208479
C        2.33441225       2.81210648      -1.12851532
C        1.52633772       1.98933576      -0.32859673
C        2.97630863       3.99553202      -0.54608501
N        2.35427584       4.68213717       0.41979033
N        3.10998371       5.78770410       0.63143285
C        2.56984717       6.81787955       1.45618457
C        1.64121639       6.47216630       2.45268317
C        1.11447528       7.45055011       3.29769155
C        1.48504143       8.78394833       3.13139113
C        2.37568903       9.13280005       2.11756225
Cl       2.80129001      10.78567435       1.89183653
C        2.92219162       8.16080846       1.27799824
C        4.33582009       5.71766743      -0.02994515
C        5.48800835       6.61106931       0.17363350
C        5.91905864       6.95277047       1.46550179
C        7.01378901       7.80095671       1.65569538
C        7.71677026       8.28917370       0.55703960
C        7.31487060       7.93271825      -0.72708034
C        6.20302809       7.11105261      -0.92384460
C        4.24759272       4.57042066      -0.80787088
Cl       5.46302579       3.90718132      -1.80653266
H        0.52742151      -0.28349080      -2.66706222
H        1.92986717       1.16981943      -4.09804072
H        3.04416130       3.14407114      -3.15551749
H        1.39443783       2.22127612       0.72601214
H        1.34147567       5.43479213       2.60159455
H        0.41581492       7.17177367       4.08307196
H        1.06837474       9.54477729       3.78598283
H        3.58102889       8.47615413       0.47512148
H        5.40673163       6.56691697       2.34470141
H        7.32177098       8.07313431       2.66279325
H        8.57588059       8.93695197       0.71196140
H        5.90295631       6.85727189      -1.93758946
C        8.05823791       8.40999238      -1.86427621
C        8.68080803       8.80970947      -2.81667775
Br       9.68745127       9.45601819      -4.35663048
C       -0.88226966      -0.88226966      -0.88226966
C       -0.29352522      -1.82285548      -1.72392560
C       -1.10074669      -2.63838250      -2.51447741
C       -2.49214439      -2.50846955      -2.46274038
C       -3.09248230      -1.55124055      -1.63131121
C       -2.26972325      -0.74313339      -0.83141356
C       -4.55116067      -1.42427522      -1.54248977
N       -5.12260429      -1.12392227      -0.37009611
N       -6.45863207      -1.23588556      -0.57173733
C       -7.31242543      -1.18843581       0.56931909
C       -6.88996131      -0.47419268       1.70345447
C       -7.71285355      -0.38178503       2.82730473
C       -8.94698319      -1.02963736       2.83902192
C       -9.34923574      -1.77112081       1.72942972
Cl     -10.85752510      -2.60058982       1.76298710
C       -8.54248258      -1.85606412       0.59354485
C       -6.77269237      -1.38882670      -1.92191361
C       -8.11375404      -1.29057018      -2.52111995
C       -8.98448585      -0.24388303      -2.17795844
C      -10.25715331      -0.15291312      -2.74898391
C      -10.66303044      -1.08589370      -3.69998022
C       -9.79586221      -2.11056430      -4.06824268
C       -8.53538680      -2.22444588      -3.47809262
C       -5.54319716      -1.53034328      -2.55234382
Cl      -5.25728095      -1.69180244      -4.22765638
H        0.78706767      -1.93405905      -1.76400153
H       -0.64926319      -3.38393307      -3.16453105
H       -3.09421351      -3.18342827      -3.06610815
H       -2.71647572      -0.01120044      -0.16202565
H       -5.93032677       0.04269758       1.71295594
H       -7.39008292       0.19398668       3.69157960
H       -9.58286580      -0.96198238       3.71767898
H       -8.87200430      -2.47530351      -0.23475372
H       -8.68706962       0.51547515      -1.45735272
H      -10.92774184       0.65198321      -2.45635341
H      -11.64858935      -1.00148386      -4.15079795
H       -7.88182702      -3.04107401      -3.77491663
C      -10.19988910      -3.05853260      -5.07408481
C      -10.53826162      -3.85245604      -5.91647759
Br     -11.08538137      -5.13616310      -7.27855547
C       -0.88226966       0.88226966       0.88226966
C       -1.56635583       1.95611584       0.31783462
C       -2.38415685       2.74859758       1.12085217
C       -2.51243488       2.46644178       2.48447766
C       -1.81268353       1.39784983       3.06450070
C       -1.00074485       0.59992604       2.24359931
C       -1.96133056       1.07005197       4.48654313
N       -1.94651113      -0.20928801       4.87939956
N       -2.26219997      -0.19377741       6.19783240
C       -2.53875522      -1.44013383       6.83292076
C       -1.93928812      -2.60655816       6.32796956
C       -2.16405155      -3.83951931       6.94280160
C       -3.01489640      -3.92115545       8.04385768
C       -3.64095492      -2.77073649       8.52070840
Cl      -4.72036562      -2.88253007       9.85729228
C       -3.40998912      -1.52981627       7.92482899
C       -2.26407798       1.09945045       6.71990424
C       -2.31653823       1.46358963       8.14531631
C       -1.50448608       0.81345403       9.08838721
C       -1.55612715       1.16173939      10.44118379
C       -2.39288201       2.19133659      10.86468575
C       -3.18038605       2.86144499       9.93283815
C       -3.15606240       2.49679421       8.58506869
C       -2.08897657       1.92222358       5.61468412
Cl      -1.94389938       3.62322805       5.60961234
H       -1.47677552       2.17697267      -0.74275528
H       -2.93165096       3.58088510       0.68519126
H       -3.18520353       3.08270658       3.07583982
H       -0.46855738      -0.24804047       2.66918490
H       -1.26770731      -2.56351276       5.47047870
H       -1.67646014      -4.73386085       6.56191734
H       -3.19376217      -4.88318171       8.51658874
H       -3.94645459      -0.66376694       8.29937388
H       -0.82127392       0.02247127       8.78520201
H       -0.93615411       0.63368417      11.16227377
H       -2.41800044       2.46695040      11.91592031
H       -3.78983822       3.02845448       7.87952497
C       -4.02316024       3.94732357      10.36202269
C       -4.72898363       4.85674688      10.72146474
Br      -5.87024035       6.32720746      11.30265214
C        0.88226966      -0.88226966       0.88226966
C        1.49581216      -0.33705301       2.00744112
C        2.28561448      -1.14769831       2.82029380
C        2.46119990      -2.49843573       2.50371869
C        1.86159443      -3.05117579       1.36226384
C        1.05932795      -2.22763937       0.55730288
C        2.01057626      -4.47312700       1.03422241
N        0.98681060      -5.14085315       0.48895893
N        1.37082194      -6.44067273       0.45476030
C        0.38726068      -7.41905774       0.12522373
C       -0.69456705      -7.04551725      -0.69025068
C       -1.66005206      -7.98461161      -1.05722570
C       -1.57035355      -9.29302867      -0.58507649
C       -0.51917142      -9.65406192       0.25603633
Cl      -0.43331542     -11.26132236       0.86712088
C        0.46150899      -8.72809073       0.61540213
C        2.72126501      -6.59535165       0.76681602
C        3.52305663      -7.81662151       0.58576602
C        3.45429136      -8.55719693      -0.60516097
C        4.21722581      -9.71621410      -0.77438957
C        5.08855633     -10.13029653       0.23005151
C        5.18532767      -9.38662694       1.40271458
C        4.40249758      -8.24549927       1.58992845
C        3.13563011      -5.32954170       1.16071246
Cl       4.71331859      -4.85513261       1.60828857
H        1.35800138       0.71039734       2.26338888
H        2.75748138      -0.73264071       3.70760523
H        3.05503470      -3.11130203       3.17741320
H        0.56602601      -2.64263128      -0.31895548
H       -0.78084166      -6.02856997      -1.07305506
H       -2.48048462      -7.69440409      -1.70940284
H       -2.32692021     -10.02060191      -0.86651250
H        1.24203191      -9.03614644       1.30388318
H        2.80241083      -8.24547597      -1.41893961
H        4.13633053     -10.29044178      -1.69466028
H        5.68963779     -11.02462005       0.08661331
H        4.48853427      -7.68917747       2.52010592
C        6.10817251      -9.79399763       2.43033635
C        6.88105507     -10.13517059       3.29096959
Br       8.13074079     -10.68681840       4.68254075
