161
Properties=species:S:1:pos:R:3 pbc="F F F"
C        0.00000000       0.00000000       0.00000000
C        0.88139418       0.88139418      -0.88139418
C        0.73885977       2.26515624      -0.84040158
C        1.54943303       3.06824728      -1.64847562
C        2.50917489       2.49880582      -2.50236717
C        2.61944824       1.10170177      -2.54433597
C        1.81562694       0.29506498      -1.73121385
C        3.33158421       3.36454102      -3.35571100
N        2.82453718       4.51080488      -3.81898404
N        3.80417810       5.10379952      -4.54115715
C        4.91584130       4.26684701      -4.68217989
C        6.13219823       4.49982850      -5.47611838
C        6.84075465       5.70727679      -5.43365731
C        7.99283858       5.88318106      -6.21368005
C        8.46515860       4.83859534      -7.00514985
C        7.79422280       3.62125283      -7.03560987
C        6.62867320       3.46042161      -6.28338641
C        4.66279626       3.21051784      -3.81336286
Cl       5.75547022       1.97896600      -3.35829228
C        3.53636217       6.38783975      -5.10225391
C        3.95790883       6.68179138      -6.40886661
C        3.70704506       7.93870220      -6.97027275
C        3.01831276       8.90661779      -6.24594917
C        2.57857161       8.62086188      -4.95545253
C        2.83248655       7.37018505      -4.37544870
Cl       2.35921142       7.21771203      -2.71387075
H        0.00219637       2.73146451      -0.19186842
H        1.42189999       4.14959700      -1.61390299
H        3.31387352       0.61205858      -3.22208546
H        1.92307906      -0.78555237      -1.77667759
H        6.50982092       6.53033763      -4.80525247
H        8.51466522       6.83637664      -6.18915585
H        8.16546623       2.79284057      -7.63368710
H        6.11421523       2.50170267      -6.32744951
H        4.45277840       5.94008348      -7.03053065
H        4.04262923       8.15932493      -7.98140622
H        2.82365039       9.88375776      -6.68107019
H        2.04997766       9.38797397      -4.39230576
C        9.65675203       5.01607211      -7.79395091
C       10.65471152       5.16470890      -8.45457180
Br      12.26832762       5.40504203      -9.52273989
C       -0.88139418      -0.88139418      -0.88139418
C       -1.48729186      -0.34397811      -2.01314763
C       -2.29248687      -1.15561945      -2.81804961
C       -2.49886554      -2.50920521      -2.50227714
C       -1.89729429      -3.02332956      -1.34486213
C       -1.08430927      -2.21628560      -0.54131090
C       -3.36647712      -3.33256706      -3.35279203
N       -4.40488207      -2.77076563      -3.97867841
N       -4.99701304      -3.74996811      -4.70215362
C       -4.43492365      -5.00116515      -4.42877939
C       -4.86419249      -6.31716705      -4.92678556
C       -5.14765561      -6.55666382      -6.27736932
C       -5.55877721      -7.82815546      -6.70276702
C       -5.64601536      -8.87504414      -5.78784430
C       -5.33719530      -8.66531836      -4.44857184
C       -4.96022184      -7.39004449      -4.02221488
C       -3.30773988      -4.71215088      -3.66678620
Cl      -2.07096027      -5.80217097      -3.21959726
C       -6.10989951      -3.39526623      -5.52129008
C       -7.23199230      -4.23721748      -5.57935704
C       -8.32850646      -3.90492859      -6.38258495
C       -8.32760467      -2.72437764      -7.11889742
C       -7.22806054      -1.87151815      -7.05530733
C       -6.11748888      -2.19655727      -6.26407417
Cl      -4.76846076      -1.11585278      -6.40648066
H       -1.34743196       0.70040562      -2.27850296
H       -2.76844511      -0.72076035      -3.69619452
H       -2.06413490      -4.05101783      -1.03286482
H       -0.62374428      -2.63850633       0.34804634
H       -5.06298059      -5.76491937      -7.01751106
H       -5.80102590      -7.98907100      -7.75010081
H       -5.38205836      -9.47987866      -3.73005688
H       -4.73014621      -7.24548117      -2.96774003
H       -7.29903879      -5.14264997      -4.98170376
H       -9.19118251      -4.56645014      -6.42572773
H       -9.17881510      -2.46578734      -7.74387590
H       -7.23170057      -0.95534878      -7.64320804
C       -6.05395414     -10.18363125      -6.22918966
C       -6.39560287     -11.27957295      -6.59881640
Br      -6.94801997     -13.05161800      -7.19647157
C       -0.88139418       0.88139418       0.88139418
C       -0.30635005       1.64592800       1.89213954
C       -1.11761332       2.45271693       2.69582568
C       -2.50774133       2.50503711       2.49756945
C       -3.06801533       1.70890356       1.48856710
C       -2.25847930       0.90642481       0.67700166
C       -3.33791947       3.34391189       3.37000485
N       -2.97716500       3.53472281       4.64243829
N       -3.90076465       4.36126983       5.18710030
C       -4.96362667       4.59318218       4.30805935
C       -6.20353351       5.34326020       4.56135139
C       -6.21031927       6.60780978       5.16355970
C       -7.41955747       7.28138574       5.38875649
C       -8.62190789       6.71321263       4.97378328
C       -8.63300615       5.47342034       4.34465901
C       -7.43034658       4.79031224       4.15182239
C       -4.53636555       4.04883336       3.10147805
Cl      -5.29213145       4.22123618       1.57936087
C       -3.71176362       4.77557800       6.53911420
C       -4.80800556       4.82560652       7.41495474
C       -4.63865086       5.23520632       8.74216282
C       -3.37627787       5.57925814       9.21534372
C       -2.27762704       5.51594583       8.36131315
C       -2.43350929       5.11852270       7.02608832
Cl      -1.00490963       5.23618604       6.04969853
H        0.76541452       1.62150302       2.06944080
H       -0.65647470       3.03946700       3.48945828
H       -4.14234814       1.67909539       1.32657402
H       -2.71478235       0.30217217      -0.10275025
H       -5.28493900       7.08653012       5.47394191
H       -7.40821344       8.24986363       5.88212064
H       -9.56332825       5.03024320       3.99842246
H       -7.46202232       3.81723027       3.66411483
H       -5.80268313       4.51640465       7.10430475
H       -5.49502804       5.27639042       9.41194191
H       -3.24389657       5.89838397      10.24619781
H       -1.29557498       5.79734076       8.73734165
C       -9.86124879       7.41308654       5.19243972
C      -10.89919679       7.99923094       5.37556449
Br     -12.57747092       8.94697687       5.67166175
C        0.88139418      -0.88139418       0.88139418
C        1.61464636      -1.91803523       0.31173599
C        2.42158403      -2.72163575       1.12293615
C        2.50523550      -2.49751985       2.50759254
C        1.74006966      -1.46228248       3.06313385
C        0.93762758      -0.65085745       2.25342074
C        3.34328708      -3.37011109       3.33843805
N        3.50219936      -4.65283053       2.99929621
N        4.33613573      -5.19571780       3.91728125
C        4.60604364      -4.30098155       4.95784301
C        5.37545188      -4.54496080       6.18773241
C        6.62796617      -5.17182637       6.18189621
C        7.32084003      -5.38680253       7.38205713
C        6.78472587      -4.93741912       8.58675881
C        5.55783544      -4.28379078       8.60945928
C        4.85493542      -4.10084613       7.41669967
C        4.07686001      -3.09238285       4.51743410
Cl       4.29368193      -1.55959811       5.23944845
C        4.72031373      -6.55907689       3.74706521
C        4.77502021      -7.41430185       4.85924477
C        5.15536163      -8.75239031       4.70826806
C        5.46512365      -9.25668917       3.44906690
C        5.39666766      -8.42304971       2.33516865
C        5.02838720      -7.07744989       2.47228321
Cl       5.13668304      -6.13148057       1.02263059
H        1.56558503      -2.11557932      -0.75563505
H        2.98358683      -3.53551985       0.66629330
H        1.73467248      -1.27891782       4.13442725
H        0.35776394       0.14940377       2.70584411
H        7.08217125      -5.50951533       5.25372444
H        8.27914939      -5.89935946       7.36168886
H        5.13995331      -3.91086862       9.54117197
H        3.89231628      -3.59345804       7.45759309
H        4.49164479      -7.07835478       5.85339295
H        5.20047914      -9.40611177       5.57676946
H        5.76150720     -10.29603000       3.33094114
H        5.65122816      -8.82355504       1.35547419
C        7.50461008      -5.14579372       9.81637125
C        8.10751312      -5.32030744      10.84617166
Br       9.08235633      -5.60248138      12.51127183
