182
Properties=species:S:1:pos:R:3 pbc="F F F"
Cl       3.23527878      11.05254739      -8.20806809
C        3.65071201       9.56022117      -7.46084390
C        4.43285499       8.63494499      -8.14918645
C        4.77934129       7.42122577      -7.54495632
C        4.35132020       7.13484226      -6.24304878
C        3.53494632       8.06358570      -5.57162888
C        3.19674290       9.27810672      -6.17674699
N        4.68151791       5.90598232      -5.58864243
N        3.85951564       5.47181282      -4.60036033
C        4.22882918       4.20983128      -4.34263800
C        3.41691629       3.38690536      -3.43742769
C        3.98625873       2.45351381      -2.56050163
C        3.17687385       1.65157747      -1.74699169
C        1.79210954       1.79210954      -1.79210954
C        1.20675232       2.73213680      -2.63387514
C        2.01772835       3.52540925      -3.45082896
C        5.40855682       3.89232485      -5.06609278
Cl       6.27078115       2.42062600      -5.01002691
C        5.72808211       5.01382421      -5.81993468
C        6.91713776       5.26401277      -6.64515370
C        7.31480499       4.33822866      -7.62202069
C        8.44951883       4.56749966      -8.40528749
C        9.18758626       5.73327832      -8.22654221
C        8.81187871       6.66395134      -7.26016272
C        7.68899667       6.42103528      -6.46149682
H        4.76759217       8.84606370      -9.16211815
H        5.34677174       6.70957261      -8.13852102
H        3.17162948       7.86402866      -4.56513435
H        2.58017015       9.99309481      -5.63861387
H        5.06369971       2.33822429      -2.48414900
H        3.63824012       0.92476012      -1.08467755
H        0.12778941       2.85586409      -2.66835438
H        1.54741010       4.25520185      -4.10904949
H        6.74526241       3.42490890      -7.78628079
H        8.74430971       3.83157192      -9.14841188
H        9.38489021       7.57717123      -7.11757604
H        7.42267862       7.15372556      -5.70300291
C       10.34632406       5.97931252      -9.04531806
C       11.31676696       6.18536616      -9.73104284
Br      12.88589106       6.51853748     -10.83980180
Cl      -3.07417380     -10.69728230      -8.72443815
C       -3.53243194      -9.28837537      -7.85096977
C       -4.41812642      -8.37675592      -8.42210409
C       -4.79964472      -7.23125042      -7.71462825
C       -4.30229430      -7.00054220      -6.42637473
C       -3.38346398      -7.91216485      -5.87453206
C       -3.01020113      -9.05898200      -6.58241348
N       -4.66511549      -5.84207433      -5.66895285
N       -3.80666888      -5.41688943      -4.70813048
C       -4.23789371      -4.20258299      -4.34082177
C       -3.42026303      -3.38571757      -3.43526874
C       -3.98679516      -2.55221321      -2.46126579
C       -3.17664618      -1.75050945      -1.64828738
C       -1.79210954      -1.79210954      -1.79210954
C       -1.20678422      -2.63338222      -2.73259782
C       -2.01931276      -3.42634844      -3.54830536
C       -5.48265883      -3.92115118      -4.96316443
Cl      -6.43200173      -2.51902655      -4.75040578
C       -5.78043148      -5.01109060      -5.77031893
C       -7.00491562      -5.28890827      -6.53248035
C       -7.52775819      -4.33170571      -7.41559045
C       -8.69660043      -4.58765849      -8.13804705
C       -9.34394881      -5.81060277      -7.99285522
C       -8.84337550      -6.77350954      -7.11910773
C       -7.68613062      -6.50577984      -6.37961831
H       -4.80755041      -8.54472795      -9.42349566
H       -5.45129034      -6.52361645      -8.21995858
H       -2.96528627      -7.75331930      -4.88218693
H       -2.31323621      -9.76297894      -6.13566368
H       -5.06160049      -2.51658374      -2.30788877
H       -3.63715837      -1.10139159      -0.90912783
H       -0.12703536      -2.68000502      -2.84496750
H       -1.54941478      -4.07807532      -4.28417133
H       -7.03091876      -3.37263791      -7.55289544
H       -9.08868956      -3.82743914      -8.80816481
H       -9.34516793      -7.73132042      -7.00314914
H       -7.32153715      -7.26572801      -5.69214194
C      -10.53807406      -6.08261112      -8.75026946
C      -11.53815396      -6.31041811      -9.38460388
Br     -13.15519858      -6.67876275     -10.41026900
Cl     -11.93348392       4.33043710       6.23197323
C      -10.25632063       4.51608550       5.89937095
C       -9.72617324       5.78944274       5.70137045
C       -8.36136684       5.94810122       5.43605532
C       -7.52019132       4.83037655       5.37864337
C       -8.07414250       3.54807028       5.54794811
C       -9.43734697       3.39470640       5.81954324
N       -6.11987717       4.94742665       5.10883885
N       -5.48489058       3.87577358       4.57102464
C       -4.28222919       4.31883246       4.18023682
C       -3.40697093       3.44186130       3.39241712
C       -2.01391824       3.43976448       3.54659145
C       -1.20757354       2.62489923       2.74297024
C       -1.79210954       1.79210954       1.79210954
C       -3.17448374       1.75666700       1.64161351
C       -3.97596828       2.57785210       2.44014619
C       -4.08976281       5.65400677       4.62320486
Cl      -2.69039496       6.60615119       4.40488791
C       -5.25673318       6.03006047       5.27504735
C       -5.53931257       7.25938360       6.02760807
C       -5.30577803       8.51763824       5.45163807
C       -5.56595326       9.69077145       6.16558127
C       -6.07601642       9.61366972       7.45772065
C       -6.31215321       8.37453205       8.04930751
C       -6.02893466       7.20154696       7.34104715
H      -10.37146335       6.66393097       5.74037969
H       -8.00279565       6.95447438       5.23759535
H       -7.45055158       2.65760508       5.49263584
H       -9.84731766       2.39894362       5.96561755
H       -1.53031095       4.05932198       4.29644007
H       -0.12906759       2.64905502       2.86955518
H       -3.64000884       1.10261861       0.90938043
H       -5.05717785       2.54440667       2.31007691
H       -4.91766387       8.60101816       4.43777008
H       -5.36752678      10.65377050       5.70299622
H       -6.71188793       8.30919159       9.05855797
H       -6.20653546       6.24515550       7.82771614
C       -6.36167135      10.82166302       8.18762027
C       -6.60090735      11.83335740       8.79891121
Br      -6.98773173      13.46918165       9.78731695
Cl      12.00382801      -4.58853774       5.90352850
C       10.30709299      -4.71318607       5.65149802
C        9.71472180      -5.96890820       5.53335643
C        8.33390313      -6.07768459       5.33393566
C        7.53952284      -4.92700482       5.26268357
C        8.15475392      -3.66463910       5.35076788
C        9.53402781      -3.56080740       5.55676139
N        6.12484145      -4.99285935       5.05844188
N        5.51284678      -3.91788914       4.50095287
C        4.27611336      -4.32311978       4.18206533
C        3.40483080      -3.44241641       3.39400213
C        2.02141001      -3.37156278       3.60730139
C        1.21555087      -2.55659746       2.80329469
C        1.79210954      -1.79210954       1.79210954
C        3.16664015      -1.82486178       1.58126232
C        3.96715131      -2.64613535       2.38067991
C        4.04674468      -5.62822914       4.69200062
Cl       2.59962944      -6.52542525       4.57637937
C        5.22451302      -6.02780072       5.30952726
C        5.48762233      -7.23523700       6.10344490
C        5.17507315      -8.50527106       5.59471014
C        5.41649804      -9.65727461       6.34853332
C        5.98655103      -9.54788327       7.61297249
C        6.30157781      -8.29637863       8.13803633
C        6.03740091      -7.14325167       7.39087618
H       10.32316093      -6.86885969       5.58375339
H        7.92416577      -7.07461003       5.19608957
H        7.56792745      -2.75040611       5.28245894
H        9.99227513      -2.57900410       5.64059960
H        1.54572528      -3.93631798       4.40402974
H        0.14372300      -2.52716369       2.97679110
H        3.62653694      -1.22412198       0.80134896
H        5.04191899      -2.66656674       2.20317570
H        4.73888769      -8.61448327       4.60308114
H        5.15666411     -10.62934011       5.93828929
H        6.74838486      -8.20588734       9.12536530
H        6.27724158      -6.17582276       7.82634276
C        6.25262984     -10.73513585       8.38318895
C        6.47547085     -11.72945987       9.02824524
Br       6.83578591     -13.33719773      10.07124669
C       -0.00445707       0.01189536      -1.78238275
H       -0.66409135       0.67374010      -2.43557963
H        0.65740317      -0.63156657      -2.45157240
C       -0.90989263      -0.90692880      -0.91072765
C        0.90977584       0.90977584      -0.90977584
C       -0.00465871       1.77757030       0.00794375
H       -0.66225468       2.44313916      -0.64384735
H        0.64322798       2.43503045       0.67728295
C       -1.78241447       0.00034974      -0.00472694
H       -2.45427497      -0.65498947       0.64260836
H       -2.43311707       0.67328779      -0.65473579
C       -0.91132561       0.90220522       0.91563759
C       -0.01476271      -0.02253852       1.78660255
H       -0.67934791      -0.69751639       2.42135241
H        0.63392994       0.61504881       2.47327442
C        0.01484550      -1.77751727      -0.01636693
H        0.67870853      -2.42144646      -0.68295456
H       -0.62264859      -2.45592969       0.64226336
C        1.78714474       0.01002794       0.00389507
H        2.44202412       0.67113390       0.66197326
H        2.45385902      -0.65136977      -0.64189061
C        0.91606151      -0.90478549       0.90901405
