153
Properties=species:S:1:pos:R:3 pbc="F F F"
C        0.00000000       0.00000000       0.00000000
Cl       2.32537475      10.14264337      -7.29816406
C        2.74080798       8.65031715      -6.55093988
C        3.52295097       7.72504096      -7.23928242
C        3.86943726       6.51132174      -6.63505230
C        3.44141617       6.22493824      -5.33314475
C        2.62504230       7.15368167      -4.66172485
C        2.28683887       8.36820270      -5.26684296
N        3.77161389       4.99607830      -4.67873841
N        2.94961162       4.56190880      -3.69045631
C        3.31892515       3.29992726      -3.43273398
C        2.50701227       2.47700134      -2.52752367
C        3.07635470       1.54360979      -1.65059761
C        2.26696983       0.74167345      -0.83708767
C        0.88220551       0.88220551      -0.88220551
C        0.29684829       1.82223277      -1.72397112
C        1.10782433       2.61550523      -2.54092494
C        4.49865279       2.98242082      -4.15618876
Cl       5.36087712       1.51072198      -4.10012288
C        4.81817808       4.10392019      -4.91003066
C        6.00723374       4.35410875      -5.73524968
C        6.40490097       3.42832464      -6.71211667
C        7.53961480       3.65759564      -7.49538346
C        8.27768223       4.82337429      -7.31663819
Br       9.79849927       5.14628859      -8.39126289
C        7.90197468       5.75404732      -6.35025869
C        6.77909265       5.51113125      -5.55159280
H        3.85768814       7.93615968      -8.25221413
H        4.43686772       5.79966858      -7.22861700
H        2.26172546       6.95412464      -3.65523032
H        1.67026612       9.08319079      -4.72870984
H        4.15379568       1.42832027      -1.57424498
H        2.72833610       0.01485609      -0.17477352
H       -0.78211462       1.94596007      -1.75845035
H        0.63750607       3.34529782      -3.19914546
H        5.83535838       2.51500488      -6.87637677
H        7.83440569       2.92166789      -8.23850785
H        8.47498619       6.66726721      -6.20767202
H        6.51277460       6.24382154      -4.79309889
Cl      -4.84259499      -3.80554365     -11.11804354
C       -4.68966571      -3.84691734      -9.40548197
C       -5.81744369      -4.05569444      -8.61413623
C       -5.69922774      -4.09623449      -7.22034908
C       -4.44696127      -3.93795998      -6.61457791
C       -3.32161077      -3.69524237      -7.42359568
C       -3.44332206      -3.66223295      -8.81632952
N       -4.28158894      -3.97115262      -5.19368904
N       -3.21180864      -3.32666030      -4.66350778
C       -3.42640818      -3.28360224      -3.34157596
C       -2.53308361      -2.49134991      -2.48710375
C       -2.17607893      -2.89972214      -1.19476103
C       -1.36109474      -2.09398119      -0.39065501
C       -0.88220551      -0.88220551      -0.88220551
C       -1.20021129      -0.47056309      -2.17227780
C       -2.02104275      -1.27384260      -2.96936914
C       -4.57172611      -4.05480019      -3.01073607
Cl      -5.19348771      -4.33237419      -1.44586009
C       -5.08105695      -4.54528860      -4.20578338
C       -6.17840226      -5.49775490      -4.42043501
C       -7.43222548      -5.28671316      -3.82640364
C       -8.47798570      -6.19340229      -4.02120591
C       -8.28098162      -7.31206033      -4.82465277
Br      -9.70105251      -8.52646939      -5.10852885
C       -7.04306803      -7.54198394      -5.42122873
C       -5.99098805      -6.64508083      -5.20574782
H       -6.79530258      -4.17630055      -9.07445881
H       -6.61257422      -4.20984382      -6.64273526
H       -2.33665392      -3.55126775      -6.98315875
H       -2.56197116      -3.49147714      -9.42871846
H       -2.51296573      -3.85088175      -0.79251344
H       -1.10793368      -2.42306729       0.61303525
H       -0.82288149       0.46846730      -2.56788161
H       -2.26663008      -0.93875058      -3.97656870
H       -7.61146348      -4.41204694      -3.20322961
H       -9.43707559      -6.01481780      -3.54268804
H       -6.88462515      -8.41428364      -6.05101663
H       -5.02880092      -6.85209899      -5.66879511
Cl      -9.31731229       2.05094857       8.39792133
C       -8.07342515       2.54898888       7.31965098
C       -8.24472556       3.69574836       6.54680043
C       -7.23430421       4.10983209       5.67167501
C       -6.04283573       3.38086630       5.57579713
C       -5.89611333       2.20689534       6.33744015
C       -6.90569231       1.80054779       7.21564443
N       -4.98518687       3.76799244       4.69325129
N       -4.12872038       2.80557458       4.26768176
C       -3.41818169       3.35824527       3.27515944
C       -2.51673795       2.52022486       2.47457445
C       -1.28923246       2.99177313       1.98955650
C       -0.47832548       2.17940548       1.18799998
C       -0.88220551       0.88220551       0.88220551
C       -2.08297176       0.38354514       1.37653529
C       -2.89403206       1.20043572       2.16978671
C       -3.71689795       4.74286964       3.17749478
Cl      -3.01460216       5.86092384       2.09619598
C       -4.68369499       5.01095573       4.13747822
C       -5.24852887       6.30463233       4.54343096
C       -5.77468192       7.18507500       3.58558535
C       -6.30687661       8.42051229       3.96520501
C       -6.32969230       8.77853954       5.30946287
Br      -7.07070983      10.43837773       5.82696320
C       -5.80966444       7.92046762       6.27614864
C       -5.25633477       6.69437170       5.89111022
H       -9.16774338       4.26719510       6.61112347
H       -7.43314986       4.98000737       5.05199607
H       -4.98917449       1.60837096       6.27353497
H       -6.77037847       0.90124594       7.81054235
H       -0.93507299       3.98978881       2.23149913
H        0.46270658       2.56954443       0.81112787
H       -2.40140726      -0.63067644       1.15156499
H       -3.83426030       0.80008823       2.54760083
H       -5.77717249       6.92004334       2.52952420
H       -6.69919095       9.09044858       3.20494190
H       -5.82635686       8.19537983       7.32818873
H       -4.84227385       6.04675388       6.66066729
Cl       8.04536914      -9.61054566       2.11026738
C        7.05173899      -8.29368941       2.59663661
C        6.32864609      -8.37352091       3.78510736
C        5.52273764      -7.30342033       4.18965334
C        5.44693911      -6.14390330       3.40865675
C        6.15637827      -6.08931302       2.19475753
C        6.96577534      -7.15836345       1.79774573
N        4.63450894      -5.02757488       3.78434679
N        4.20278751      -4.19706885       2.80212036
C        3.27255970      -3.41399015       3.36503655
C        2.47484061      -2.51451786       2.52217880
C        2.07105729      -1.24419315       2.95531166
C        1.26940820      -0.43381049       2.14251225
C        0.88220551      -0.88220551       0.88220551
C        1.29520040      -2.12756785       0.42028394
C        2.08877691      -2.93748769       1.23798990
C        3.22879650      -3.64283295       4.76563292
Cl       2.23720505      -2.83733811       5.89717882
C        4.15469390      -4.64180861       5.03562642
C        4.59658046      -5.16497487       6.33503684
C        3.65940424      -5.60221416       7.28372388
C        4.07369390      -6.09424018       8.52465983
C        5.43130442      -6.16595320       8.82043710
Br       5.99415782      -6.85330873      10.48858421
C        6.37810750      -5.73421570       7.89395750
C        5.95985075      -5.22040368       6.66156227
H        6.37776473      -9.27098763       4.39730958
H        4.93768695      -7.43107964       5.09638671
H        6.10560681      -5.20916900       1.55630461
H        7.52172370      -7.09423713       0.86620592
H        2.37763787      -0.85621024       3.92251282
H        0.95622160       0.54162665       2.50337076
H        1.00642481      -2.48149051      -0.56561952
H        2.40244252      -3.91264382       0.86686302
H        2.59269573      -5.56548852       7.06855579
H        3.32960396      -6.41738358       9.24759390
H        7.44039375      -5.78942466       8.12010701
H        6.71531465      -4.87497832       5.95940205
