161
Properties=species:S:1:pos:R:3 pbc="F F F"
C        0.00000000       0.00000000       0.00000000
C        0.88147606       0.88147606      -0.88147606
C        0.31269540       1.58966304      -1.93713388
C        1.11973933       2.39650304      -2.74742981
C        2.49768735       2.50114041      -2.50407805
C        3.05061610       1.78531775      -1.43071357
C        2.24654270       0.97443825      -0.62349610
C        3.34609878       3.34334381      -3.34848304
C        3.14818492       3.70069421      -4.69590759
C        4.22078567       4.49775847      -5.05745000
C        4.50213091       5.02844885      -6.39373907
C        5.74665708       4.84494925      -7.01024374
C        5.98783798       5.36273945      -8.28729167
C        4.97813355       6.04643219      -8.95939538
C        3.72796479       6.21514028      -8.37277859
C        3.49160569       5.70582154      -7.09321304
N        4.99420771       4.62487671      -3.89800512
N        4.47946331       3.87981525      -2.88968169
C        6.11185820       5.48020636      -3.63600584
C        6.22419761       6.69606227      -4.33750719
C        7.28491860       7.56865423      -4.08861302
Cl       7.40852763       9.03655138      -4.97955657
C        8.23703813       7.26733496      -3.12415282
C        8.13092245       6.07597547      -2.40947607
C        7.08098801       5.17575185      -2.65800989
Cl       7.18067586       3.68415976      -1.78073291
H       -0.75340443       1.52744245      -2.13700773
H        0.65295155       2.95198847      -3.55654850
H        4.11669113       1.85500812      -1.21965301
H        2.69723217       0.42643750       0.19941244
H        2.34693625       3.38170168      -5.34838276
H        6.54173352       4.29673995      -6.50849846
H        6.96309823       5.22326844      -8.74729792
H        2.93161905       6.73928273      -8.89654656
H        2.51000429       5.84913949      -6.64453623
H        5.47248916       7.01059742      -5.05471172
H        9.06057432       7.94771616      -2.92406392
H        8.88588569       5.84190287      -1.65915424
C        5.22538872       6.57869699     -10.27437031
C        5.43246492       7.02446876     -11.37566181
Br       5.76728962       7.74524402     -13.15635702
C       -0.88147606      -0.88147606      -0.88147606
C       -2.25700565      -0.66656753      -0.91591913
C       -3.06670544      -1.47512793      -1.72183882
C       -2.50463287      -2.49953929      -2.49873364
C       -1.11536505      -2.69535991      -2.45592246
C       -0.30558677      -1.89187046      -1.64701982
C       -3.34687882      -3.34797329      -3.34307351
C       -4.70316058      -3.67976332      -3.16186283
C       -5.05164949      -4.51449776      -4.20984689
C       -6.33587916      -5.19542270      -4.39301698
C       -6.41017363      -6.57664947      -4.61502698
C       -7.65033660      -7.20088337      -4.78664913
C       -8.81994984      -6.44884828      -4.71516300
C       -8.76592964      -5.08057326      -4.46938076
C       -7.52602322      -4.45680504      -4.30781202
N       -3.90272032      -4.61126945      -5.00309977
N       -2.86784117      -3.94284326      -4.43827581
C       -3.73737095      -5.18768391      -6.30301554
C       -4.84174793      -5.24090933      -7.17510981
C       -4.71186726      -5.77004860      -8.46027000
Cl      -6.08588491      -5.84387610      -9.49487458
C       -3.48342338      -6.23054126      -8.91456126
C       -2.37706767      -6.16950059      -8.06980573
C       -2.49110854      -5.65740073      -6.76624047
Cl      -1.05265567      -5.78526675      -5.80764612
H       -2.71006243       0.12629588      -0.32727921
H       -4.13570495      -1.28064153      -1.74514204
H       -0.65621145      -3.48100456      -3.05413624
H        0.76699673      -2.06438915      -1.62686481
H       -5.34600940      -3.38855079      -2.34246051
H       -5.50799390      -7.18402582      -4.65495221
H       -7.69097098      -8.27164821      -4.97104541
H       -9.67630416      -4.48903501      -4.40210916
H       -7.49853917      -3.38463236      -4.12050848
H       -5.80857039      -4.83508963      -6.89413829
H       -3.37810114      -6.63744205      -9.91681122
H       -1.41735970      -6.53968076      -8.42990234
C      -10.09685841      -7.09096610      -4.89063150
C      -11.16626934      -7.62873978      -5.03758637
Br     -12.89541637      -8.49827434      -5.27519996
C       -0.88147606       0.88147606       0.88147606
C       -0.69504669       2.26158324       0.88286237
C       -1.50086954       3.07084301       1.69195963
C       -2.49806120       2.50439528       2.50044932
C       -2.67516437       1.11211892       2.47936413
C       -1.86723148       0.30162643       1.67561913
C       -3.34332846       3.34613224       3.34846494
C       -3.03450829       4.59944575       3.91083270
C       -4.14371677       4.99205213       4.64022524
C       -4.25600005       6.18488140       5.48343739
C       -4.68028917       6.10536283       6.81619807
C       -4.77833150       7.26094858       7.59858901
C       -4.43171807       8.49572713       7.05651591
C       -3.98346440       8.58958623       5.74283302
C       -3.89529505       7.43576911       4.95957611
N       -5.09054947       3.97975722       4.44678285
N       -4.57311002       2.96914688       3.70670334
C       -6.47519265       3.94431821       4.80855954
C       -7.18706678       5.15456285       4.91613743
C       -8.54503771       5.15790414       5.23924400
Cl      -9.38259717       6.65467998       5.38735843
C       -9.22824996       3.96525902       5.43501693
C       -8.54215852       2.75843600       5.31577947
C       -7.17100814       2.73439769       5.00934392
Cl      -6.44824566       1.15921935       5.03810353
H        0.06681413       2.71962321       0.25823668
H       -1.34827700       4.14657631       1.66663522
H       -3.44608145       0.65059810       3.09467271
H       -2.01993510      -0.77414204       1.67846417
H       -2.10007704       5.13890703       3.83803662
H       -4.93705653       5.14682809       7.26308731
H       -5.12157007       7.18464429       8.62745023
H       -3.70132633       9.54969208       5.31642992
H       -3.54720980       7.52467099       3.93179921
H       -6.71743667       6.11112877       4.70923287
H      -10.28692368       3.96469927       5.68073146
H       -9.08262340       1.82609868       5.47822072
C       -4.53135736       9.68544061       7.86165804
C       -4.61480527      10.68182565       8.53596457
Br      -4.74973347      12.29289599       9.62626121
C        0.88147606      -0.88147606       0.88147606
C        2.00433092      -1.49897709       0.33618430
C        2.81223023      -2.30905147       1.14239049
C        2.50290215      -2.50272734       2.49727631
C        1.37113497      -1.86572220       3.02979024
C        0.55981275      -1.06038228       2.22428202
C        3.34433677      -3.34893942       3.34464944
C        4.15091834      -4.43618590       2.95768250
C        4.74294128      -4.92220454       4.11084832
C        5.59107375      -6.11168795       4.22155714
C        5.32483097      -7.11950248       5.15751661
C        6.15168500      -8.24485304       5.24133105
C        7.23386155      -8.37513091       4.37496866
C        7.49746103      -7.39642739       3.42199524
C        6.67642294      -6.26830172       3.34591562
N        4.30417136      -4.07673400       5.13618419
N        3.42002345      -3.16409114       4.66484566
C        4.73905755      -3.99158003       6.49743282
C        6.05214236      -4.38207186       6.82355285
C        6.52057964      -4.28658729       8.13501893
Cl       8.12282632      -4.79454341       8.50726584
C        5.70899844      -3.77894975       9.14057772
C        4.41267496      -3.37255314       8.83114589
C        3.91622266      -3.47772750       7.52079959
Cl       2.24359361      -3.05950489       7.34247004
H        2.26455118      -1.35531586      -0.70882128
H        3.69181317      -2.76944168       0.70023367
H        1.11418453      -1.99734338       4.07982434
H       -0.31350348      -0.58040936       2.65735135
H        4.25785287      -4.85342916       1.96573866
H        4.47247132      -7.04446573       5.83003488
H        5.93960602      -9.01239643       5.98166214
H        8.33511237      -7.49696772       2.73536825
H        6.89716701      -5.50820094       2.59831205
H        6.74898928      -4.72408070       6.06472834
H        6.07316008      -3.69784516      10.16134916
H        3.77822223      -2.98210909       9.62661148
C        8.08470259      -9.53376882       4.45998461
C        8.79728196     -10.50412807       4.53118546
Br       9.94946254     -12.07311691       4.64631122
