153
Properties=species:S:1:pos:R:3 pbc="F F F"
C        0.00000000       0.00000000       0.00000000
C        0.88199574       0.88199574      -0.88199574
C        0.29125998       1.82542336      -1.72175804
C        1.09324212       2.62960398      -2.52830598
C        2.48223590       2.48227181      -2.49755295
C        3.08315496       1.53227708      -1.65722276
C        2.26917757       0.73433577      -0.84096699
C        4.53770400       1.38442854      -1.62590538
N        5.18155149       0.98868688      -0.52545977
N        6.50484324       1.05469047      -0.81636343
C        6.71122509       1.35349057      -2.16595983
C        5.45152448       1.60739694      -2.67643425
C        7.98392063       1.35190566      -2.89528709
C        8.27223484       2.39609645      -3.78810698
C        9.47200313       2.41553930      -4.50327954
C       10.39837813       1.39004100      -4.33419910
C       10.11345049       0.34343622      -3.46002336
Br      11.37236690      -1.04943227      -3.22850366
C        8.91073486       0.31161120      -2.75032255
C        7.45441787       0.98611561       0.24559317
C        8.58700239       1.82151519       0.19672096
C        9.50040959       1.83806794       1.25075229
Cl      10.87219094       2.87226013       1.17361918
C        9.30195128       1.03691079       2.36955173
C        8.18465824       0.20303020       2.42867041
C        7.25844877       0.16880157       1.37515789
Cl       6.00088514      -1.01162662       1.52605712
H       -0.78961426       1.94237842      -1.75029396
H        0.63866334       3.37349457      -3.17755265
H        3.08787924       3.13220109      -3.12460028
H        2.72158385      -0.00139043      -0.17952178
H        5.22054381       1.88000689      -3.69664321
H        7.56498697       3.21163244      -3.93112886
H        9.68179820       3.23252356      -5.18995825
H       11.33207551       1.41291214      -4.88856559
H        8.70030482      -0.52715170      -2.09147369
H        8.74963597       2.50697072      -0.63016280
H       10.00925449       1.05343902       3.19562236
H        8.04497315      -0.43163358       3.30109172
C       -0.88199574      -0.88199574      -0.88199574
C       -1.37783077      -2.08345641      -0.37715419
C       -2.18078989      -2.89032957      -1.18003262
C       -2.47873731      -2.49638834      -2.48693502
C       -1.98009980      -1.29003706      -3.00251795
C       -1.18145298      -0.47888454      -2.18414281
C       -2.29784774      -0.88030060      -4.36988957
N       -2.38409161       0.40576045      -4.71736698
N       -2.78464171       0.42201962      -6.01327505
C       -2.81275020      -0.86823303      -6.54969225
C       -2.54232034      -1.70801653      -5.48501879
C       -3.03425969      -1.24764082      -7.94921289
C       -3.88104901      -2.32636625      -8.24902300
C       -4.10282324      -2.71598353      -9.57201520
C       -3.47972572      -2.03111369     -10.61177881
C       -2.62744959      -0.96807863     -10.32138185
Br      -1.78177631      -0.03598177     -11.73368021
C       -2.39207611      -0.58038729      -9.00020522
C       -3.25802555       1.64249090      -6.57940566
C       -4.36611368       1.60177308      -7.44745602
C       -4.90514848       2.78042572      -7.96300248
Cl      -6.26376722       2.70767420      -9.01473886
C       -4.36245988       4.01381277      -7.62066322
C       -3.26283629       4.06704963      -6.76323136
C       -2.70366741       2.89135640      -6.23978144
Cl      -1.26214823       3.10349087      -5.30454404
H       -1.14704360      -2.39496985       0.63895533
H       -2.57817681      -3.82317913      -0.78835462
H       -3.12033220      -3.13540324      -3.08894517
H       -0.79374882       0.46221717      -2.56818355
H       -2.48778293      -2.78696003      -5.52245095
H       -4.38365270      -2.87212429      -7.45197128
H       -4.76324506      -3.55266716      -9.78836780
H       -3.65997143      -2.33467071     -11.63891109
H       -1.70493522       0.23714938      -8.79684097
H       -4.85828004       0.66519423      -7.69368369
H       -4.78556767       4.93448654      -8.01599003
H       -2.83511585       5.03535232      -6.51248433
C       -0.88199574       0.88199574       0.88199574
C       -1.84445698       0.29291652       1.70106788
C       -2.65116334       1.09511848       2.50487026
C       -2.49745006       2.48355690       2.48105370
C       -1.53304759       3.08322202       1.65638519
C       -0.71819359       2.26777268       0.85851406
C       -1.37351692       4.53675434       1.63776666
N       -0.19528994       5.11250026       1.38790794
N       -0.38467011       6.44652977       1.54469725
C       -1.73434323       6.74437160       1.75196065
C       -2.36338935       5.51732030       1.85464601
C       -2.35729437       8.07142201       1.80239701
C       -3.31126161       8.35188384       2.79329282
C       -3.92777188       9.60361633       2.85943376
C       -3.59757130      10.59050475       1.93454218
C       -2.66164129      10.31520939       0.94005939
Br      -2.21124125      11.65615108      -0.31595404
C       -2.04972905       9.06200740       0.86093216
C        0.75136555       7.30320074       1.64310512
C        0.72067983       8.36574911       2.56672735
C        1.83861181       9.18041939       2.74591766
Cl       1.78169766      10.46714591       3.88538364
C        3.00313387       8.95033658       2.02210762
C        3.04507969       7.90196750       1.10213022
C        1.92817275       7.07594410       0.90432111
Cl       2.08006323       5.90789656      -0.36463193
H       -1.96884436      -0.78731087       1.72152463
H       -3.39635544       0.64065298       3.15270215
H       -3.12817691       3.08752901       3.12897469
H        0.03823426       2.71837724       0.21957221
H       -3.41846553       5.35443953       2.02428885
H       -3.58001405       7.59704810       3.53068612
H       -4.66363001       9.80635080       3.63429920
H       -4.07583992      11.56383646       1.99387686
H       -1.33967635       8.86277931       0.06217115
H       -0.14679491       8.54422425       3.19575033
H        3.87829737       9.58003373       2.16533479
H        3.95521156       7.73830777       0.52915165
C        0.88199574      -0.88199574       0.88199574
C        1.57051662      -1.95347130       0.31445346
C        2.37395657      -2.76028329       1.11691221
C        2.47998539      -2.49714532       2.48492996
C        1.78695428      -1.42244041       3.06326012
C        0.98891952      -0.60907235       2.24648846
C        1.90411808      -1.14888086       4.49503897
N        1.79673772       0.08763552       4.98659595
N        2.05076334      -0.00959070       6.31554309
C        2.17648738      -1.34457746       6.70961064
C        2.12535959      -2.07396210       5.53603398
C        2.29041742      -1.86401617       8.07667981
C        3.22398162      -2.87371094       8.35874571
C        3.34763072      -3.39396477       9.64922648
C        2.53833688      -2.91050059      10.67378076
C        1.60023888      -1.91801534      10.39865585
Br       0.50142581      -1.25943732      11.79057516
C        1.46320639      -1.40134297       9.10811926
C        2.30984478       1.17743573       7.06253127
C        3.31497625       1.15164925       8.04846963
C        3.64932807       2.31056556       8.74896273
Cl       4.88581775       2.25793799       9.94295213
C        3.00178326       3.51070857       8.47823565
C        2.00235350       3.54847853       7.50514305
C        1.64862471       2.39127191       6.79473966
Cl       0.30098712       2.55848635       5.72070062
H        1.48956420      -2.16312423      -0.74963031
H        2.92075566      -3.59091072       0.67804418
H        3.12552411      -3.13141894       3.08773757
H        0.45150143       0.23166092       2.67987469
H        2.19767006      -3.14910654       5.45041732
H        3.87149392      -3.26212212       7.57413223
H        4.07704929      -4.17476349       9.85246722
H        2.64242415      -3.31459883      11.67653026
H        0.70833339      -0.64387852       8.91241490
H        3.88718939       0.25057786       8.25015796
H        3.26577444       4.41707682       9.01837353
H        1.49039836       4.48832955       7.31017904
