182
Properties=species:S:1:pos:R:3 pbc="F F F"
C        1.79189976       1.79189976      -1.79189976
C        1.20116401       2.73532738      -2.63166206
C        2.00314614       3.53950801      -3.43821000
C        3.39213992       3.39217584      -3.40745698
C        3.99305899       2.44218111      -2.56712679
C        3.17908160       1.64423979      -1.75087102
C        5.44760802       2.29433257      -2.53580940
N        6.09145551       1.89859091      -1.43536380
N        7.41474726       1.96459449      -1.72626745
C        7.62112911       2.26339459      -3.07586385
C        6.36142850       2.51730096      -3.58633827
C        8.89382466       2.26180969      -3.80519112
C        9.18213886       3.30600048      -4.69801100
C       10.38190715       3.32544332      -5.41318356
C       11.30828215       2.29994502      -5.24410312
C       11.02335451       1.25334025      -4.36992738
C        9.82063889       1.22151522      -3.66022658
C        8.36432189       1.89601963      -0.66431086
C        9.49690642       2.73141921      -0.71318306
C       10.41031361       2.74797197       0.34084826
Cl      11.78209496       3.78216415       0.26371516
C       10.21185531       1.94681481       1.45964771
C        9.09456226       1.11293422       1.51876639
C        8.16835280       1.07870560       0.46525386
Cl       6.91078917      -0.10172260       0.61615310
H        0.12028977       2.85228244      -2.66019798
H        1.54856736       4.28339859      -4.08745668
H        3.99778326       4.04210512      -4.03450430
H        3.63148787       0.90851359      -1.08942580
H        6.13044784       2.78991092      -4.60654724
H        8.47489100       4.12153647      -4.84103288
H       10.59170222       4.14242759      -6.09986227
H       12.24197953       2.32281616      -5.79846962
H        9.61020884       0.38275232      -3.00137771
H        9.65953999       3.41687474      -1.54006682
H       10.91915852       1.96334304       2.28571833
H        8.95487717       0.47827044       2.39118769
C       11.98166351       0.19306460      -4.19369057
C       12.78424730      -0.69491625      -4.04609224
Br      14.08195741      -2.13070619      -3.80743822
C       -1.79189976      -1.79189976      -1.79189976
C       -1.24453617      -2.91787047      -2.40574681
C       -2.04625585      -3.72268649      -3.21192181
C       -3.39016898      -3.39445090      -3.40715286
C       -3.94661431      -2.26064321      -2.79510936
C       -3.13531349      -1.46204983      -1.97682908
C       -5.35479702      -1.92335924      -2.99959374
N       -6.06924235      -1.28878143      -2.06738643
N       -7.33893323      -1.22597851      -2.54069747
C       -7.41154309      -1.69282757      -3.85601689
C       -6.14833361      -2.18014732      -4.13658681
C       -8.56501731      -1.63542575      -4.76038240
C       -8.88764143      -2.75465320      -5.54385571
C       -9.97456487      -2.72517435      -6.42079482
C      -10.75227653      -1.57508004      -6.52497373
C      -10.43020853      -0.45581895      -5.76059466
C       -9.33784968      -0.47435098      -4.89018002
C       -8.39677154      -0.87844274      -1.64943810
C       -9.62502705      -1.55863775      -1.75784390
C      -10.65903059      -1.30040915      -0.85799758
Cl     -12.14769577      -2.14884643      -1.00400175
C      -10.48977181      -0.37429427       0.16504367
C       -9.27805654       0.30790683       0.28141961
C       -8.22894174       0.06543376      -0.61829655
Cl      -6.84005133       1.08294470      -0.43580685
H       -0.19849079      -3.17623836      -2.25804105
H       -1.62732159      -4.60714762      -3.68495342
H       -3.99963056      -4.04669443      -4.02806769
H       -3.55490469      -0.58406133      -1.49046125
H       -5.83074045      -2.62880945      -5.06735609
H       -8.29693895      -3.66674590      -5.47377550
H      -10.21304469      -3.60114072      -7.01980667
H      -11.59958879      -1.55940008      -7.20427645
H       -9.09192074       0.41875138      -4.32116952
H       -9.77963533      -2.33256343      -2.50428279
H      -11.29228494      -0.17650403       0.87200574
H       -9.15937003       1.04176065       1.07564945
C      -11.23498602       0.73355629      -5.86698895
C      -11.90898717       1.72965804      -5.95609416
Br     -12.99879002       3.34027034      -6.10016976
C       -1.79189976       1.79189976       1.79189976
C       -3.04407560       2.19476139       1.32931646
C       -3.84942681       3.00051062       2.13092673
C       -3.39660639       3.40639811       3.38876824
C       -2.13590115       3.00740483       3.85906090
C       -1.33620015       2.18776455       3.05022770
C       -1.66796154       3.43185353       5.17793493
N       -0.83872002       2.68063443       5.90605577
N       -0.69219821       3.31998808       7.09342291
C       -1.31552333       4.57073938       7.07412485
C       -1.97789673       4.62554602       5.86162499
C       -1.24410971       5.61871579       8.09799997
C       -2.41139238       6.30315784       8.47160012
C       -2.37156982       7.31220130       9.43676293
C       -1.16295051       7.64926584      10.04011395
C        0.00193235       6.98370186       9.66485263
C       -0.02859201       5.98163576       8.69215291
C       -0.11130914       2.62085987       8.19248338
C       -0.65345421       2.80970808       9.47834641
C       -0.16213159       2.08869729      10.56660844
Cl      -0.84479299       2.32920066      12.12655030
C        0.86403559       1.16612351      10.39693448
C        1.41110783       0.97182208       9.12801584
C        0.93357164       1.69254739       8.02282878
Cl       1.79900447       1.44868536       6.54323258
H       -3.39992718       1.88269145       0.35015156
H       -4.83055369       3.30939328       1.77947566
H       -4.04969179       4.02219830       4.00250259
H       -0.35962671       1.86508881       3.40471174
H       -2.57807003       5.44871257       5.50012338
H       -3.36852926       6.05160256       8.01732852
H       -3.28491174       7.83208954       9.71699081
H       -1.13853071       8.43077402      10.79396058
H        0.89683962       5.49229296       8.39888554
H       -1.49528315       3.47557439       9.64562402
H        1.24389651       0.59778785      11.24289189
H        2.22387645       0.25896929       9.00686709
C        1.25206521       7.33102231      10.28946158
C        2.29905148       7.62190318      10.81257158
Br       3.99193972       8.09223295      11.65839621
C        1.79189976      -1.79189976       1.79189976
C        3.17784610      -1.64689258       1.74341477
C        3.98433204      -2.45119675       2.54533536
C        3.40233838      -3.40237618       3.38705818
C        2.00822656      -3.55595671       3.43818361
C        1.20346505      -2.73510965       2.63561770
C        1.40366116      -4.55047604       4.32361280
N        0.19329295      -4.37378800       4.85832927
N       -0.01040131      -5.42542562       5.69058490
C        1.01720066      -6.36589578       5.57729111
C        1.94606042      -5.78604442       4.73296290
C        1.07637481      -7.69979110       6.18465956
C        2.27197124      -8.14060919       6.77356991
C        2.36012082      -9.40958258       7.35083064
C        1.25288895     -10.25363115       7.34581019
C        0.06693301      -9.82834154       6.75134758
C       -0.02488408      -8.56519870       6.16206607
C       -1.07821185      -5.36851651       6.63434773
C       -0.86432666      -5.87507843       7.93075692
C       -1.85786063      -5.77107213       8.90422581
Cl      -1.57192715      -6.38916721      10.48330390
C       -3.07090927      -5.15773464       8.61219704
C       -3.29568149      -4.65396820       7.33044339
C       -2.31005123      -4.75501527       6.33684050
Cl      -2.78089867      -4.21217941       4.76163273
H        3.63533782      -0.90902511       1.08840726
H        5.06483780      -2.33567482       2.51891001
H        4.05182993      -4.00757862       4.01498413
H        0.12104308      -2.83830536       2.67007883
H        2.88312711      -6.22434018       4.41943869
H        3.14837239      -7.49466797       6.79441998
H        3.29294189      -9.73605469       7.80499551
H        1.32520489     -11.23713198       7.80092844
H       -0.95357888      -8.26418442       5.68373334
H        0.08934418      -6.30787284       8.21926454
H       -3.84433555      -5.06935331       9.37176547
H       -4.25326683      -4.18901920       7.10620756
C       -1.07896557     -10.70040654       6.74697771
C       -2.03865563     -11.43076097       6.74331795
Br      -3.59039328     -12.61168232       6.73740041
C       -0.00445707       0.01189536      -1.78238275
H       -0.66409135       0.67374010      -2.43557963
H        0.65740317      -0.63156657      -2.45157240
C       -0.90989263      -0.90692880      -0.91072765
C        0.90977584       0.90977584      -0.90977584
C       -0.00465871       1.77757030       0.00794375
H       -0.66225468       2.44313916      -0.64384735
H        0.64322798       2.43503045       0.67728295
C       -1.78241447       0.00034974      -0.00472694
H       -2.45427497      -0.65498947       0.64260836
H       -2.43311707       0.67328779      -0.65473579
C       -0.91132561       0.90220522       0.91563759
C       -0.01476271      -0.02253852       1.78660255
H       -0.67934791      -0.69751639       2.42135241
H        0.63392994       0.61504881       2.47327442
C        0.01484550      -1.77751727      -0.01636693
H        0.67870853      -2.42144646      -0.68295456
H       -0.62264859      -2.45592969       0.64226336
C        1.78714474       0.01002794       0.00389507
H        2.44202412       0.67113390       0.66197326
H        2.45385902      -0.65136977      -0.64189061
C        0.91606151      -0.90478549       0.90901405
