161
Properties=species:S:1:pos:R:3 pbc="F F F"
C        0.00000000       0.00000000       0.00000000
Cl       4.60087018      11.33740875      -2.97728856
C        3.60056581       9.94211909      -2.87842268
C        4.13200304       8.68869596      -3.16099120
C        3.31601853       7.55748181      -3.07813894
C        1.95548907       7.67437332      -2.73182425
C        1.44071334       8.93958741      -2.42758943
C        2.26324049      10.07125161      -2.50589746
N        1.16023538       6.48586156      -2.67412473
N        1.81157711       5.30443115      -2.52175646
C        0.86767188       4.37443215      -2.33700460
C        1.26021503       2.99696808      -2.01221627
C        2.48726044       2.49140842      -2.47567345
C        2.90276406       1.19728228      -2.15020938
C        2.09528913       0.38773999      -1.35564476
C        0.88253448       0.88253448      -0.88253448
C        0.46714580       2.17883014      -1.19625227
C       -0.41421803       4.94574183      -2.53734824
Cl      -1.90148925       4.10900792      -2.60036438
C       -0.22132750       6.30631350      -2.74016632
C       -1.23515295       7.31920490      -3.05932460
C       -1.14957815       8.09245230      -4.22637476
C       -2.13652397       9.03554651      -4.52908589
C       -3.23574893       9.19360286      -3.68618177
C       -3.33922361       8.41261119      -2.53825867
C       -2.34524668       7.48725205      -2.21753625
H        5.17557190       8.57984203      -3.44461045
H        3.75416241       6.58698307      -3.30775419
H        0.42143398       9.08382357      -2.08432719
H        1.85604205      11.04873244      -2.26324407
H        3.13698953       3.11303909      -3.08983029
H        3.85854862       0.82761494      -2.51255118
H        2.42235547      -0.61759326      -1.10397365
H       -0.46545223       2.54563190      -0.77797847
H       -0.31427763       7.97085428      -4.91361441
H       -2.05351411       9.63956072      -5.42927875
H       -4.00767644       9.91726009      -3.93645093
H       -2.44465155       6.88618372      -1.31662994
C       -4.48608645       8.55333899      -1.67889768
C       -5.44658408       8.67119852      -0.95918286
Br      -6.99962752       8.86176741       0.20453514
Cl      -1.28297002      -7.95931802      -9.67327945
C       -1.16775633      -6.53143450      -8.72191675
C       -1.99667660      -6.36731409      -7.61769951
C       -1.89880980      -5.20616429      -6.84666519
C       -0.98427755      -4.19015759      -7.18725150
C       -0.14058424      -4.37981258      -8.28749337
C       -0.23724078      -5.54805960      -9.05508918
N       -0.93325254      -3.01495331      -6.37201582
N       -1.42055995      -3.10889257      -5.10831220
C       -1.12289537      -1.95377097      -4.50244230
C       -1.40743113      -1.79116232      -3.07080594
C       -2.47614940      -2.49235735      -2.48583555
C       -2.74612737      -2.38540893      -1.11871942
C       -1.95030165      -1.57335230      -0.31501992
C       -0.88253448      -0.88253448      -0.88253448
C       -0.60192445      -0.99387391      -2.24642985
C       -0.58035484      -1.04393641      -5.44458078
Cl      -0.23479773       0.60740082      -5.18048614
C       -0.44768006      -1.73561066      -6.64186160
C        0.00427183      -1.21108152      -7.93656686
C       -0.81085270      -1.28266826      -9.07572795
C       -0.37632961      -0.75588296     -10.29589585
C        0.86305761      -0.12344103     -10.38365228
C        1.66727372      -0.02772393      -9.25119604
C        1.25023083      -0.57330316      -8.03646929
H       -2.71904729      -7.13323200      -7.34774510
H       -2.56135403      -5.09882874      -5.98871691
H        0.63255918      -3.66696221      -8.55518171
H        0.42517439      -5.68862969      -9.90456326
H       -3.10344948      -3.14019271      -3.09621671
H       -3.57283065      -2.94157413      -0.68430995
H       -2.16286960      -1.49360751       0.74774125
H        0.26190439      -0.47233898      -2.64772355
H       -1.79310261      -1.74925444      -9.02783400
H       -1.01020435      -0.82891862     -11.17620239
H        1.18734793       0.29844434     -11.33182685
H        1.89260256      -0.48769471      -7.16306996
C        2.93626347       0.64825606      -9.33066974
C        3.99904239       1.21438929      -9.39722897
Br       5.71746601       2.12977885      -9.50484961
Cl      -1.19910339       9.17023500       8.54622910
C       -0.98683740       7.63673829       7.79753189
C       -1.92386004       7.18093501       6.87689515
C       -1.74680347       5.93490879       6.26992701
C       -0.64057041       5.12564527       6.59547096
C        0.30616865       5.60780350       7.50625534
C        0.12865857       6.86037079       8.10867733
N       -0.51314626       3.85215620       5.95491922
N       -1.18078659       3.67011615       4.78686197
C       -0.78651094       2.48475880       4.30783889
C       -1.23776031       2.05309529       2.97854379
C       -2.47743679       2.49355750       2.48334802
C       -2.91452566       2.12879729       1.20693277
C       -2.11715586       1.31583618       0.40568184
C       -0.88253448       0.88253448       0.88253448
C       -0.43622548       1.25254298       2.15345975
C        0.02305588       1.82523409       5.26669382
Cl       0.59261436       0.21754610       5.18295131
C        0.20711649       2.71429506       6.31797376
C        0.91466763       2.47587825       7.58216593
C        0.26584566       2.61753197       8.81756260
C        0.94633776       2.36234139      10.01210479
C        2.27212012       1.93188702       9.98426880
C        2.91515264       1.76623374       8.76056515
C        2.24943304       2.04310668       7.56586798
H       -2.79182067       7.78425060       6.62395312
H       -2.49619647       5.59789228       5.55481093
H        1.21476286       5.06303797       7.74130963
H        0.87133090       7.22845057       8.81089888
H       -3.11044218       3.13815996       3.09125676
H       -3.87318829       2.48589952       0.83962692
H       -2.46012159       1.03522010      -0.58660583
H        0.54843772       0.92905429       2.47754157
H       -0.77621132       2.92836967       8.86561007
H        0.43818386       2.48855579      10.96495344
H        2.78990057       1.71947922      10.91645593
H        2.76889761       1.90692274       6.62013697
C        4.27578238       1.29603727       8.72589533
C        5.41530978       0.90224772       8.69685935
Br       7.25782922       0.26552333       8.64991064
Cl       4.11064367     -11.40738480       3.39753902
C        3.18868413      -9.96127537       3.27114808
C        3.80823237      -8.72865817       3.44479966
C        3.05561688      -7.55609124       3.33993115
C        1.67187590      -7.60892958       3.08088116
C        1.06691341      -8.85557603       2.88540075
C        1.82574248     -10.02925722       2.98538987
N        0.94478456      -6.37908797       2.99634915
N        1.65287881      -5.25078457       2.73410134
C        0.75487205      -4.27674751       2.54748906
C        1.20584503      -2.94718080       2.11637356
C        2.48630724      -2.49206497       2.47597009
C        2.95528804      -1.24698975       2.04797793
C        2.14872716      -0.43670679       1.25323992
C        0.88253448      -0.88253448       0.88253448
C        0.41281985      -2.13045916       1.29894921
C       -0.54321025      -4.75554079       2.85654149
Cl      -1.97280014      -3.82664982       2.95403336
C       -0.41736896      -6.11135974       3.13116154
C       -1.46662314      -7.03976208       3.57023761
C       -1.35436079      -7.74788437       4.77572533
C       -2.37379904      -8.60934592       5.19256155
C       -3.53010654      -8.74805200       4.42609024
C       -3.65857927      -8.03000362       3.24022189
C       -2.63427079      -7.18768990       2.80612250
H        4.87182387      -8.66796159       3.66023893
H        3.56255402      -6.60271502       3.48363063
H        0.02180500      -8.95647853       2.61130121
H        1.34843337     -10.99224984       2.82733534
H        3.13547600      -3.11585737       3.08852554
H        3.95136497      -0.91645074       2.33089903
H        2.51739314       0.53032537       0.92166808
H       -0.56342847      -2.46281023       0.95877638
H       -0.47272276      -7.63828896       5.40462485
H       -2.27070387      -9.16414541       6.12188383
H       -4.32580699      -9.40712856       4.76471301
H       -2.75391689      -6.63485844       1.87722056
C       -4.86236259      -8.14946596       2.45904685
C       -5.87053113      -8.24951567       1.80481275
Br      -7.50065438      -8.41128759       0.74697154
