153
Properties=species:S:1:pos:R:3 pbc="F F F"
C        0.00000000       0.00000000       0.00000000
Cl       4.60087018      11.33740875      -2.97728856
C        3.60056581       9.94211909      -2.87842268
C        4.13200304       8.68869596      -3.16099120
C        3.31601853       7.55748181      -3.07813894
C        1.95548907       7.67437332      -2.73182425
C        1.44071334       8.93958741      -2.42758943
C        2.26324049      10.07125161      -2.50589746
N        1.16023538       6.48586156      -2.67412473
N        1.81157711       5.30443115      -2.52175646
C        0.86767188       4.37443215      -2.33700460
C        1.26021503       2.99696808      -2.01221627
C        2.48726044       2.49140842      -2.47567345
C        2.90276406       1.19728228      -2.15020938
C        2.09528913       0.38773999      -1.35564476
C        0.88253448       0.88253448      -0.88253448
C        0.46714580       2.17883014      -1.19625227
C       -0.41421803       4.94574183      -2.53734824
Cl      -1.90148925       4.10900792      -2.60036438
C       -0.22132750       6.30631350      -2.74016632
C       -1.23515295       7.31920490      -3.05932460
C       -1.14957815       8.09245230      -4.22637476
C       -2.13652397       9.03554651      -4.52908589
C       -3.23574893       9.19360286      -3.68618177
C       -3.33922361       8.41261119      -2.53825867
Br      -4.84480086       8.59735566      -1.41010777
C       -2.34524668       7.48725205      -2.21753625
H        5.17557190       8.57984203      -3.44461045
H        3.75416241       6.58698307      -3.30775419
H        0.42143398       9.08382357      -2.08432719
H        1.85604205      11.04873244      -2.26324407
H        3.13698953       3.11303909      -3.08983029
H        3.85854862       0.82761494      -2.51255118
H        2.42235547      -0.61759326      -1.10397365
H       -0.46545223       2.54563190      -0.77797847
H       -0.31427763       7.97085428      -4.91361441
H       -2.05351411       9.63956072      -5.42927875
H       -4.00767644       9.91726009      -3.93645093
H       -2.44465155       6.88618372      -1.31662994
Cl      -1.19902415      -9.16930048      -8.54724287
C       -0.98685796      -7.63587201      -7.79837761
C       -1.92382145      -7.18030500      -6.87756374
C       -1.74684615      -5.93433348      -6.27045965
C       -0.64075744      -5.12488786      -6.59604134
C        0.30592708      -5.60680984      -7.50700743
C        0.12849968      -6.85932307      -8.10956617
N       -0.51341377      -3.85146407      -5.95534384
N       -1.18092868      -3.66965750      -4.78717855
C       -0.78674286      -2.48431093      -4.30805484
C       -1.23787804      -2.05287388      -2.97864747
C       -2.47743549      -2.49355674      -2.48335007
C       -2.91440840      -2.12901447      -1.20683286
C       -2.11704008      -1.31605385      -0.40557994
C       -0.88253448      -0.88253448      -0.88253448
C       -0.43634009      -1.25232457      -2.15356355
C        0.02261812      -1.82456132      -5.26692883
Cl       0.59198277      -0.21681156      -5.18305427
C        0.20665808      -2.71346516      -6.31834524
C        0.91401808      -2.47479758      -7.58259705
C        0.26505700      -2.61637671      -8.81792920
C        0.94536470      -2.36094766     -10.01252546
C        2.27109583      -1.93032821      -9.98480333
C        2.91426293      -1.76474876      -8.76116041
Br       4.70039608      -1.14726340      -8.71579526
C        2.24873051      -2.04185832      -7.56641381
H       -2.79167317      -7.78376315      -6.62458806
H       -2.49619104      -5.59750324      -5.55520540
H        1.21442210      -5.06189885      -7.74210799
H        0.87112949      -7.22721907      -8.81192898
H       -3.11043622      -3.13816240      -3.09126029
H       -3.87297887      -2.48628534      -0.83945052
H       -2.45991528      -1.03560760       0.58678702
H        0.54824074      -0.92866943      -2.47772945
H       -0.77696654      -2.92734083      -8.86588368
H        0.43710566      -2.48710551     -10.96532552
H        2.78873069      -1.71773599     -10.91702927
H        2.76829803      -1.90572859      -6.62073156
Cl      -1.19610231       8.58705435       9.13241083
C       -1.03808211       7.10042369       8.28260178
C       -1.93036076       6.78846244       7.26286700
C       -1.79751627       5.58005458       6.57406842
C       -0.78252210       4.66442883       6.91473570
C        0.12211995       5.00254580       7.92746433
C       -0.01033877       6.21782483       8.61222597
N       -0.69838015       3.43508695       6.18675458
N       -1.28331359       3.39213433       4.96231680
C       -0.94016834       2.21755793       4.42138236
C       -1.31549022       1.92114373       3.03276544
C       -2.47672491       2.49303200       2.48458539
C       -2.83725015       2.25815146       1.15485412
C       -2.04071367       1.44556440       0.35239580
C       -0.88253448       0.88253448       0.88253448
C       -0.51202595       1.12230680       2.20789546
C       -0.25913397       1.42791959       5.38181848
Cl       0.19623116      -0.20925404       5.21336824
C       -0.09409237       2.22047403       6.51058592
C        0.49220831       1.83523368       7.80035118
C       -0.23995030       1.93695902       8.99233959
C        0.32371655       1.54226697      10.20955800
C        1.61254747       1.01176156      10.24482162
C        2.33627384       0.88577794       9.06214215
Br       4.07060010       0.13451863       9.09874404
C        1.78889070       1.30087265       7.84755966
H       -2.72924275       7.47523284       6.99554879
H       -2.51078393       5.35637023       5.78174551
H        0.96709001       4.37208797       8.18458679
H        0.69953458       6.47386485       9.39368829
H       -3.10690305       3.13940138       3.09355447
H       -3.73528113       2.71564923       0.74778438
H       -2.32392475       1.26615015      -0.68133903
H        0.41772108       0.69933565       2.57654357
H       -1.25703751       2.32468317       8.98847038
H       -0.24742986       1.63819599      11.12969951
H        2.03826824       0.69161335      11.19268947
H        2.36999210       1.19361950       6.93453472
Cl       6.01909417     -10.87430060       2.02217271
C        4.81615294      -9.64710396       1.95785068
C        5.07245957      -8.39767915       2.51155149
C        4.09272257      -7.40301370       2.45590300
C        2.84015910      -7.65787958       1.86364796
C        2.60534258      -8.91252489       1.29002272
C        3.59220019      -9.90586443       1.34232494
N        1.86685745      -6.60876621       1.84459801
N        2.31691824      -5.33561732       1.98522917
C        1.26294063      -4.53795601       1.77821199
C        1.45237387      -3.08220285       1.73482267
C        2.48970269      -2.48927250       2.47536712
C        2.71615378      -1.11111850       2.42298344
C        1.90640420      -0.30388809       1.62838159
C        0.88253448      -0.88253448       0.88253448
C        0.65831528      -2.26072986       0.92318308
C        0.08534826      -5.31905338       1.66447040
Cl      -1.51794842      -4.73601190       1.58981957
C        0.48089021      -6.65028327       1.69397884
C       -0.37618692      -7.84225390       1.67730957
C       -0.33066998      -8.78625224       2.71366665
C       -1.17134673      -9.90342472       2.69603044
C       -2.08877168     -10.07282670       1.65998069
C       -2.15590043      -9.12728648       0.64026019
Br      -3.42192510      -9.33302193      -0.74843426
C       -1.30261023      -8.02318653       0.63896532
H        6.02719443      -8.18664935       2.98618060
H        4.31552434      -6.43355231       2.89982303
H        1.68927478      -9.14396942       0.75634054
H        3.40267301     -10.87525692       0.89008863
H        3.13979155      -3.10543260       3.09463476
H        3.52818147      -0.67298749       2.99754578
H        2.08631988       0.76715329       1.58956927
H       -0.12335502      -2.68285792       0.29865524
H        0.35929685      -8.66423901       3.54665519
H       -1.11836304     -10.63642464       3.49726376
H       -2.75074088     -10.93537019       1.66140527
H       -1.37093189      -7.29535904      -0.16626504
