197
Properties=species:S:1:pos:R:3 pbc="F F F"
C        0.00000000       0.00000000       0.00000000
C        0.88140083       0.88140083      -0.88140083
C        2.26641734       0.79735847      -0.78086915
C        3.07402469       1.61177815      -1.58436496
C        2.51536289       2.52150199      -2.50272786
C        1.10951731       2.58312817      -2.57475432
C        0.29708597       1.77137439      -1.77556847
C        3.35267937       3.40736894      -3.33930943
C        4.61404344       3.06635047      -3.78619577
C        5.33638994       3.99970834      -4.53402276
C        6.65560982       3.52962248      -5.03874661
O        7.39799043       2.96475018      -4.24598056
N        6.86675234       3.74672323      -6.38761485
C        7.99324410       3.38248255      -7.16283728
C        9.01910475       2.57640882      -6.66025702
C       10.09551404       2.19363069      -7.46707486
C       10.17713082       2.62099990      -8.79265702
C       11.30729885       2.16503021      -9.66636805
C        9.16005462       3.43462743      -9.30050547
C        8.07171363       3.83088958      -8.49964429
C        7.03692760       4.73978827      -9.10909639
C        4.81405209       5.28994471      -4.78902945
C        5.52044257       6.33955585      -5.43131924
C        4.90939518       7.56265795      -5.68378046
Br       5.86603016       8.92886924      -6.56970947
C        3.59865417       7.77704885      -5.28919941
C        2.89815350       6.76479258      -4.61444391
C        1.48290331       7.02571227      -4.16432370
C        3.49842166       5.52773454      -4.34198523
N        2.80206095       4.60451187      -3.65430217
H        2.73068801       0.11232353      -0.07604755
H        4.15295436       1.54040700      -1.45982420
H        0.63372646       3.28088907      -3.26305275
H       -0.78354719       1.85024795      -1.85763287
H        5.04039715       2.08889602      -3.58048558
H        6.12157010       4.20593504      -6.89293609
H        9.00319483       2.20240659      -5.64151703
H       10.86570289       1.54952283      -7.04810935
H       11.42689299       2.82041906     -10.53547289
H       11.11662893       1.14750702     -10.02211436
H       12.25268749       2.17930212      -9.11421921
H        9.21688839       3.76824898     -10.33554528
H        6.94037011       5.65553551      -8.51625677
H        6.06888166       4.23261084      -9.16449274
H        7.31160495       5.04265510     -10.12529048
H        6.56282432       6.21268638      -5.71742488
H        3.11822346       8.73266211      -5.48738229
H        1.13113870       8.00910872      -4.49364414
H        1.42161659       6.99762871      -3.07161681
H        0.80481617       6.27705577      -4.58756780
C       -0.88140083      -0.88140083      -0.88140083
C       -1.79414254      -1.75359083      -0.29691160
C       -2.59682076      -2.56723894      -1.10610811
C       -2.50514170      -2.52377995      -2.51067109
C       -1.56713154      -1.63222833      -3.06803993
C       -0.76304678      -0.81585142      -2.26513063
C       -3.32581717      -3.39463622      -3.37890436
C       -4.59359977      -3.82830260      -3.04468730
C       -5.26217820      -4.68687312      -3.92106973
C       -6.65004283      -5.05021267      -3.52372341
O       -6.83417460      -5.40724488      -2.36730169
N       -7.59551214      -4.88662336      -4.51895492
C       -8.99102547      -5.10775503      -4.43978344
C       -9.63767537      -5.38621689      -3.23187833
C      -11.02546307      -5.55170361      -3.17905291
C      -11.79702448      -5.45624002      -4.33752323
C      -13.28934070      -5.58405187      -4.26530454
C      -11.15729315      -5.18688942      -5.55100494
C       -9.76068826      -5.02094455      -5.62061468
C       -9.14284589      -4.77163788      -6.97132850
C       -4.63940449      -5.14874271      -5.10487905
C       -5.19003147      -6.11185108      -5.98943511
C       -4.52712797      -6.47111785      -7.15758778
Br      -5.30163083      -7.73217560      -8.33080244
C       -3.30149630      -5.90124116      -7.46216497
C       -2.72145968      -4.97837167      -6.57755865
C       -1.37272144      -4.39125999      -6.90895785
C       -3.36867584      -4.60921646      -5.39024913
N       -2.75346721      -3.75438836      -4.55301942
H       -1.88447635      -1.81894896       0.78436622
H       -3.27989616      -3.25802014      -0.61526926
H       -1.45396671      -1.57364340      -4.15005817
H       -0.04881539      -0.14325573      -2.73226251
H       -5.07830871      -3.50240096      -2.12906908
H       -7.25861199      -4.55102565      -5.41080359
H       -9.09198689      -5.45863630      -2.29649527
H      -11.49696294      -5.74793342      -2.21843872
H      -13.71560286      -5.82152734      -5.24565473
H      -13.72760874      -4.64440494      -3.91423662
H      -13.57558179      -6.38951752      -3.58110952
H      -11.75504056      -5.10783544      -6.45780664
H       -8.38804807      -5.53454417      -7.18957015
H       -8.68369784      -3.77888173      -7.00340567
H       -9.88803031      -4.81875121      -7.77276902
H       -6.13228285      -6.60419041      -5.75646232
H       -2.78210303      -6.17967337      -8.37649147
H       -1.01718378      -4.72835162      -7.88835617
H       -0.63286730      -4.69616575      -6.16182906
H       -1.43088808      -3.29807763      -6.94047403
C       -0.88140083       0.88140083       0.88140083
C       -0.32765763       1.97089102       1.54609631
C       -1.13540549       2.77430059       2.36046172
C       -2.50830534       2.50705982       2.52422757
C       -3.03424052       1.39334813       1.83981115
C       -2.23280834       0.58741094       1.02380956
C       -3.36960606       3.32891973       3.40083195
C       -3.16461000       4.67586636       3.62611331
C       -4.01426658       5.34554969       4.51030477
C       -3.77249401       6.80841970       4.64306520
O       -2.61811587       7.17989508       4.81071021
N       -4.90196935       7.59360997       4.50551111
C       -4.99127439       9.00546358       4.54182597
C       -3.86018562       9.82683129       4.56875368
C       -3.98108682      11.22014549       4.55498728
C       -5.23850628      11.82401320       4.52826826
C       -5.35947282      13.31717792       4.46204637
C       -6.37492768      11.01003242       4.51022741
C       -6.26935126       9.60594469       4.52695155
C       -7.54124148       8.79954563       4.54502516
C       -5.03481041       4.65352672       5.20468912
C       -5.86336389       5.22083216       6.20712161
C       -6.87543949       4.47701115       6.80338296
Br      -7.98251161       5.27060097       8.11149629
C       -7.07376038       3.15615921       6.43498285
C       -6.23616627       2.56555245       5.47567127
C       -6.44582813       1.11805186       5.10905928
C       -5.20428723       3.29491512       4.86893908
N       -4.40007384       2.67343265       3.98736849
H        0.73038392       2.20047343       1.44896958
H       -0.66386145       3.60144952       2.88787459
H       -4.08900993       1.14217986       1.94647849
H       -2.67450641      -0.26494034       0.51476756
H       -2.37187340       5.21844082       3.11946453
H       -5.77248073       7.10720916       4.34075134
H       -2.85622362       9.41456336       4.57633148
H       -3.07868886      11.82782340       4.55682281
H       -6.35327010      13.64969183       4.77982300
H       -5.18986250      13.65999772       3.43639008
H       -4.62875410      13.79383343       5.12362129
H       -7.35884805      11.47602113       4.48581345
H       -7.55783063       8.13725595       5.41707582
H       -7.62985414       8.20635883       3.62977225
H       -8.42674888       9.44080872       4.61199294
H       -5.70545385       6.24368381       6.54379791
H       -7.86618715       2.57305484       6.89902587
H       -7.31784397       0.69620882       5.61983877
H       -5.57155583       0.52436021       5.39494608
H       -6.61805685       1.01936719       4.03201569
C        0.88140083      -0.88140083       0.88140083
C        0.77945930      -0.79878552       2.26640015
C        1.59382784      -1.60219987       3.07414010
C        2.52134701      -2.50265576       2.51558997
C        2.60077900      -2.55678609       1.10983471
C        1.78918664      -1.75759014       0.29725206
C        3.40719787      -3.33865253       3.35350734
C        3.05648295      -3.80496283       4.60514389
C        3.99012054      -4.55024397       5.32975653
C        3.51036547      -5.07664369       6.63696975
O        2.92696541      -4.29985198       7.38190377
N        3.74133897      -6.42527299       6.83447846
C        3.37303388      -7.21850624       7.94702382
C        2.54859125      -6.73822030       8.96895904
C        2.16274007      -7.56265692      10.03082259
C        2.60522760      -8.88389095      10.10166918
C        2.14636367      -9.77674824      11.21558519
C        3.43718133      -9.36946042       9.08854576
C        3.83673093      -8.55067163       8.01484493
C        4.76539416      -9.13646612       6.98395199
C        5.28956966      -4.78329993       4.82015666
C        6.33834871      -5.42146428       5.53150466
C        7.57171109      -5.65170220       4.93242031
Br       8.93700000      -6.53270732       5.89490154
C        7.79704972      -5.23861290       3.62923981
C        6.78515320      -4.56760942       2.92462738
C        7.05759556      -4.09715418       1.51818953
C        5.53772293      -4.31741367       3.51300483
N        4.61463941      -3.63246239       2.81377318
H        0.08033711      -0.10798165       2.73074033
H        1.50795038      -1.49169388       4.15354130
H        3.31256257      -3.23077543       0.63433028
H        1.88206796      -1.82551485      -0.78324918
H        2.07152727      -3.61625752       5.02199396
H        4.21562266      -6.91590087       6.08891770
H        2.16241296      -5.72394168       8.96076383
H        1.50433927      -7.16090451      10.79809130
H        2.81081346     -10.63928811      11.33268336
H        1.13562506     -10.14237557      11.00824968
H        2.14251117      -9.23603682      12.16766083
H        3.78269062     -10.40102198       9.13697005
H        5.67494092      -8.53150394       6.90571754
H        4.27062904      -9.18615990       6.00919630
H        5.07729902     -10.15221166       7.25003986
H        6.20242888      -5.72176729       6.56873940
H        8.76072711      -5.41939571       3.15814504
H        8.04910111      -4.41028955       1.17450091
H        7.01692982      -3.00419883       1.46973347
H        6.32237925      -4.52108663       0.82597386
