197
Properties=species:S:1:pos:R:3 pbc="F F F"
C        0.00000000       0.00000000       0.00000000
C       -5.21024709       3.35535671      -2.49289785
O       -4.09113187       3.37786862      -3.37912056
C       -2.92914852       3.74810310      -2.78713357
O       -2.78171458       4.03747958      -1.61007221
C       -1.83348570       3.81139104      -3.78926956
C       -1.93835723       3.23487876      -5.05963902
C       -0.87639307       3.33237292      -5.96045171
C        0.29713817       3.99455861      -5.59500862
C        0.42681512       4.56209996      -4.31973957
C       -0.65501466       4.47818337      -3.42913181
C        1.67927812       5.29697865      -3.91217114
N        2.90194204       4.50983819      -4.05970440
N        3.83719932       4.98629669      -4.91077147
C        4.85229811       4.11653050      -4.84570203
C        4.54103181       3.07314506      -3.94008893
C        3.27652162       3.33562848      -3.43703453
C        2.46567266       2.51437095      -2.53208353
C        2.40855278       1.12541204      -2.73092248
C        1.62552962       0.30950160      -1.90797259
C        0.88141509       0.88141509      -0.88141509
C        0.94097490       2.25297517      -0.65188432
C        1.74942045       3.06126256      -1.46051971
C        6.06312958       4.29794087      -5.64979527
C        6.02302641       5.07391353      -6.82008827
C        7.16935103       5.25889274      -7.59827630
C        8.36854776       4.67135376      -7.20647047
C        8.43101807       3.90011840      -6.04735751
C        7.28054949       3.71290767      -5.27247296
H       -5.41387842       4.36086965      -2.11034258
H       -5.03914450       2.65301792      -1.67049035
H       -6.08339954       3.01767065      -3.05840292
H       -2.83991392       2.70799525      -5.36102838
H       -0.96135219       2.89070242      -6.95068895
H        1.11422486       4.06414776      -6.31294004
H       -0.58381843       4.92989109      -2.44017294
H        1.64627454       5.63684636      -2.87227141
H        1.77626747       6.19655538      -4.53330462
H        5.15234157       2.21597578      -3.69473199
H        2.96745120       0.66218615      -3.54163912
H        1.59867490      -0.76198252      -2.08411097
H        0.36108505       2.70590656       0.14957353
H        1.80283132       4.12106137      -1.23366107
H        5.08994151       5.53983430      -7.13266777
H        7.11096197       5.86337894      -8.49971374
H        9.36733714       3.44656496      -5.73464671
H        7.35643292       3.12014526      -4.36441385
C        9.55322824       4.86620463      -8.00155869
C       10.54539815       5.02939223      -8.66744509
Br      12.14965297       5.29325279      -9.74412706
C        5.22403080      -3.20248640      -2.65955186
O        4.08823409      -3.22994231      -3.52414909
C        2.94560931      -3.63453898      -2.91715848
O        2.82715934      -3.94957920      -1.74341735
C        1.83175243      -3.70004009      -3.89888724
C        1.90023321      -3.09700554      -5.15938822
C        0.82273263      -3.19799984      -6.04116435
C       -0.33025269      -3.89026520      -5.66618752
C       -0.42360653      -4.48491860      -4.40012952
C        0.67381359      -4.39690511      -3.52920899
C       -1.65324756      -5.25222998      -3.98295037
N       -2.89364692      -4.48673890      -4.09109880
N       -3.83614576      -4.96500864      -4.93311307
C       -4.86645423      -4.11694160      -4.83113481
C       -4.55763451      -3.08537847      -3.91125282
C       -3.27855241      -3.33248899      -3.43814323
C       -2.46604214      -2.51306268      -2.53302231
C       -2.43985171      -1.11964601      -2.70538958
C       -1.65667651      -0.30452349      -1.88180381
C       -0.88141509      -0.88141509      -0.88141509
C       -0.90977459      -2.25808391      -0.67797590
C       -1.71822696      -3.06636767      -1.48660809
C       -6.08922017      -4.30664576      -5.61499979
C       -6.05723928      -5.05880170      -6.80098724
C       -7.21494090      -5.25129897      -7.56028020
C       -8.41732629      -4.69534049      -7.13370521
C       -8.47179511      -3.94814586      -5.95855300
C       -7.31005987      -3.75327173      -5.20259853
H        5.45468371      -4.21100849      -2.30100903
H        5.05564180      -2.51977503      -1.82023054
H        6.07909219      -2.83665930      -3.23510692
H        2.78524422      -2.54661975      -5.46773418
H        0.87947416      -2.73558897      -7.02392437
H       -1.15989041      -3.96206721      -6.36935504
H        0.63099924      -4.86905199      -2.54819286
H       -1.59306510      -5.61150562      -2.95082159
H       -1.74503187      -6.14132044      -4.61977516
H       -5.18049458      -2.24540835      -3.63714641
H       -3.02358372      -0.65192362      -3.49576913
H       -1.65412553       0.77050042      -2.03717824
H       -0.30544245      -2.71492030       0.10294468
H       -1.74654641      -4.13122150      -1.27978586
H       -5.12165603      -5.49999669      -7.14079086
H       -7.16268709      -5.83689280      -8.47447477
H       -9.41036855      -3.51938004      -5.61880023
H       -7.37944256      -3.17987218      -4.28167729
C       -9.61351200      -4.89813700      -7.90934257
C      -10.61531753      -5.06797907      -8.55893887
Br     -12.23515235      -5.34259934      -9.60928114
C       -1.32962822      -4.96168257       4.27006181
O       -2.35206745      -3.96526220       4.27905206
C       -1.88518572      -2.70056153       4.42146396
O       -0.71334889      -2.37383122       4.52631954
C       -3.01343868      -1.73557394       4.48931016
C       -4.31750005      -2.07119894       4.10985945
C       -5.33737910      -1.12241488       4.20146734
C       -5.05958774       0.16645508       4.66066259
C       -3.75520253       0.52582447       5.02762764
C       -2.74098667      -0.44185408       4.95316792
C       -3.43808097       1.90737187       5.54297508
N       -3.84620400       2.98337246       4.64190818
N       -4.75403805       3.86569833       5.11453110
C       -4.93457151       4.75192140       4.12803774
C       -4.12730458       4.41168247       3.01527875
C       -3.42719601       3.26528594       3.35670268
C       -2.52508837       2.46435759       2.52268117
C       -2.88027299       2.19322473       1.19138958
C       -2.06196407       1.41049587       0.37054386
C       -0.88141509       0.88141509       0.88141509
C       -0.49849089       1.15625674       2.19108677
C       -1.30714215       1.96465763       2.99940293
C       -5.86971006       5.87026758       4.27088808
C       -6.92113461       5.79636542       5.19952819
C       -7.82150444       6.85490892       5.35010672
C       -7.67208288       8.00034699       4.57394212
C       -6.63415387       8.09554161       3.64879849
C       -5.73673117       7.03221872       3.49698024
H       -0.80422860      -4.97746516       5.23057037
H       -0.62934997      -4.79083282       3.44584662
H       -1.80626440      -5.93475543       4.12116506
H       -4.55339458      -3.06635137       3.74206650
H       -6.35250642      -1.38612858       3.91366135
H       -5.86936536       0.89271786       4.72922944
H       -1.72401286      -0.19044509       5.25267784
H       -2.37018934       2.04710566       5.73809730
H       -3.95355194       2.05149244       6.50108308
H       -4.07354943       4.92441029       2.06508962
H       -3.81004320       2.58119728       0.78003599
H       -2.36069470       1.21551064      -0.65540199
H        0.42382135       0.74511446       2.59612497
H       -0.96360830       2.19026271       4.00368275
H       -7.04392976       4.90538333       5.81313049
H       -8.62678227       6.77188197       6.07539041
H       -6.51018244       8.99141974       3.04694664
H       -4.92593468       7.13485576       2.78020160
C       -8.59315106       9.09591787       4.73192263
C       -9.36454566      10.01345849       4.86423132
Br     -10.61182549      11.49704406       5.07816327
C        1.67842821       5.06230648       4.02188573
O        2.66254689       4.02802534       4.03133576
C        2.15466297       2.78857335       4.23999853
O        0.97639551       2.51166214       4.40110384
C        3.24789702       1.78377360       4.30305147
C        4.54788327       2.05419203       3.86246932
C        5.53442643       1.07066082       3.95266595
C        5.22673859      -0.18843380       4.47153301
C        3.92505874      -0.48301564       4.90058027
C        2.94554056       0.51980310       4.82656306
C        3.57681589      -1.83103290       5.48057912
N        3.90925544      -2.95492616       4.60730303
N        4.80116827      -3.85353156       5.07956764
C        4.91011876      -4.78228682       4.12212507
C        4.07357783      -4.45277246       3.02791551
C        3.43050564      -3.26815144       3.35052755
C        2.52726158      -2.46453543       2.52033012
C        2.84043610      -2.25725134       1.16719987
C        2.02070094      -1.47456560       0.34773727
C        0.88141509      -0.88141509       0.88141509
C        0.53956457      -1.09213401       2.21413582
C        1.34821218      -1.90054777       3.02244276
C        5.80770263      -5.92993662       4.27322647
C        6.89636528      -5.86224757       5.15841537
C        7.76176234      -6.94854493       5.31621281
C        7.53971621      -8.11549745       4.59115833
C        6.46387046      -8.20484084       3.70978268
C        5.60154656      -7.11393154       3.55045203
H        1.19161804       5.13428331       4.99999908
H        0.94083342       4.88809357       3.23162392
H        2.18491715       6.00993305       3.81768993
H        4.80631680       3.02503032       3.44782322
H        6.54676658       1.28389447       3.61716707
H        6.01089621      -0.94248042       4.53793603
H        1.93226958       0.31936473       5.17334076
H        2.51282159      -1.92187968       5.72069104
H        4.12330720      -1.95917186       6.42364840
H        3.96392599      -4.99813535       2.10098800
H        3.73843120      -2.69606124       0.73678403
H        2.28649966      -1.32973421      -0.69543052
H       -0.35036349      -0.63071280       2.63706878
H        1.03569240      -2.07502621       4.04683515
H        7.07602443      -4.95441701       5.73200215
H        8.59709133      -6.86979065       6.00717268
H        6.28330957      -9.11707619       3.14816305
H        4.76030478      -7.21173612       2.86895114
C        8.42468671      -9.23929476       4.75701010
C        9.16584950     -10.18047502       4.89591095
Br      10.36424705     -11.70228388       5.12050189
