197
Properties=species:S:1:pos:R:3 pbc="F F F"
C        0.00000000       0.00000000       0.00000000
C        5.70874447       6.12772942      -9.27382609
O        5.82347672       5.53791871      -7.97796918
C        5.01559661       6.09015365      -7.03979368
O        4.23807330       7.01595376      -7.21608866
C        5.20353760       5.41856857      -5.72671092
C        5.89265080       4.20771179      -5.59517513
C        6.01361283       3.59812912      -4.34168577
C        5.43139381       4.17268517      -3.20066672
C        4.77460597       5.40774392      -3.33681344
C        4.65286508       6.01872424      -4.58866763
C        5.51738550       3.53701497      -1.82630192
N        5.56698863       2.07451821      -1.84553345
N        6.79084796       1.50067628      -1.80330042
C        6.56771610       0.18428463      -1.71223987
C        5.17340567      -0.06666112      -1.71738881
C        4.53198505       1.16156884      -1.79036879
C        3.09134091       1.43729470      -1.74926762
C        2.48699049       2.42502125      -2.53965056
C        1.10938428       2.66784496      -2.47112025
C        0.30392536       1.89327697      -1.63963185
C        0.88238508       0.88238508      -0.88238508
C        2.26097456       0.65752908      -0.92679373
C        7.67685541      -0.77271354      -1.60519884
C        7.44620729      -2.13152346      -1.34026242
C        8.51296588      -3.02937452      -1.22069030
C        9.82401036      -2.58063345      -1.36542421
C       10.06353781      -1.23476592      -1.62950446
C        9.00401616      -0.33520798      -1.74898736
H        6.52957569       5.75377555      -9.89021240
H        5.78769631       7.21909769      -9.22321190
H        4.76155543       5.83006451      -9.73429388
H        6.33509350       3.71954697      -6.46029908
H        6.56261063       2.65848248      -4.27544385
H        4.33924762       5.89960407      -2.46920172
H        4.12395477       6.96715073      -4.67253067
H        4.66039771       3.81738401      -1.20432702
H        6.42374798       3.89230078      -1.32073305
H        4.68192730      -1.02714378      -1.65804917
H        3.06470144       3.00826771      -3.24768321
H        0.66709559       3.45094956      -3.08297692
H       -0.76608533       2.07751480      -1.60398132
H        2.68865193      -0.13476667      -0.31716232
H        6.43752544      -2.51470891      -1.21225838
H        8.31896190      -4.07840706      -1.01040139
H       10.64797355      -3.28277267      -1.26824098
H        9.20878477       0.71433286      -1.95063874
C       11.41764898      -0.76763072      -1.77704309
C       12.55171708      -0.37640499      -1.90060669
Br      14.38540929       0.25617392      -2.10039859
C       -5.05593595      -7.10281978      -8.95154425
O       -5.27749022      -6.16221448      -7.89965991
C       -4.88017034      -6.58941461      -6.67595899
O       -4.37536494      -7.67267127      -6.42207951
C       -5.15090763      -5.55168257      -5.64622689
C       -5.48323068      -4.23359107      -5.97871597
C       -5.69589302      -3.28506397      -4.97247074
C       -5.55968811      -3.62732743      -3.61773015
C       -5.26339712      -4.96235698      -3.29340923
C       -5.05075294      -5.91189953      -4.29760449
C       -5.75844624      -2.62798323      -2.49427292
N       -5.38948739      -1.25522818      -2.84232471
N       -6.38159372      -0.44226805      -3.27096288
C       -5.82254413       0.76593406      -3.40763053
C       -4.44719217       0.69773610      -3.07467729
C       -4.17700339      -0.60982750      -2.69709179
C       -2.91640010      -1.16747743      -2.19402570
C       -2.45818515      -2.44385439      -2.54962275
C       -1.25320105      -2.94940309      -2.04574535
C       -0.46205349      -2.16550911      -1.20927157
C       -0.88238508      -0.88238508      -0.88238508
C       -2.09855417      -0.38664191      -1.36010129
C       -6.61367092       1.93057035      -3.82624014
C       -6.07325164       3.22569424      -3.80738885
C       -6.84409014       4.32939012      -4.18958163
C       -8.16480053       4.15251087      -4.59651147
C       -8.71006833       2.87164818      -4.61985620
C       -7.94649557       1.76794574      -4.23924571
H       -5.58504487      -6.74904266      -9.83947611
H       -5.44753488      -8.09195737      -8.69051364
H       -3.98709018      -7.15870104      -9.18012261
H       -5.57266887      -3.92474901      -7.01752167
H       -5.95934484      -2.26919885      -5.26799328
H       -5.18215950      -5.27242344      -2.25347047
H       -4.80474257      -6.93658603      -4.02230756
H       -5.17042740      -2.90050232      -1.61117902
H       -6.81506791      -2.62212238      -2.19959152
H       -3.73044477       1.50623946      -3.08862738
H       -3.00928288      -3.06338102      -3.24798847
H       -0.92757412      -3.94923482      -2.32421313
H        0.47890615      -2.55903599      -0.83528094
H       -2.40745436       0.61799965      -1.08159286
H       -5.05006620       3.40193197      -3.48694068
H       -6.41321492       5.32742758      -4.16516890
H       -8.75880935       5.01443963      -4.88907213
H       -8.38944571       0.77418827      -4.25849893
C      -10.07561150       2.68609084      -5.03754069
C      -11.21925390       2.53068657      -5.38735145
Br     -13.06842693       2.27941100      -5.95296587
C       -8.94279068       7.11937891       5.04813039
O       -7.54662742       6.83004583       4.96269136
C       -7.21100929       5.57726026       5.35727439
O       -7.98183660       4.72207968       5.76619945
C       -5.74404726       5.36663582       5.23813401
C       -4.91447644       6.24681238       4.53424890
C       -3.54433962       5.98665878       4.42242933
C       -2.97999372       4.83373305       4.99101891
C       -3.81465987       3.97630745       5.72819601
C       -5.18421859       4.23469215       5.84134622
C       -1.50510560       4.49919048       4.87640630
N       -0.87955877       4.96819138       3.63929013
N       -0.24702899       6.16264207       3.68515360
C        0.33228488       6.30886179       2.48766370
C        0.03685243       5.18834289       1.67264290
C       -0.73637291       4.31891827       2.42863150
C       -1.23152929       2.98823133       2.05814261
C       -2.50550116       2.52731918       2.41884196
C       -2.94500677       1.24827078       2.05507194
C       -2.13050977       0.42280333       1.28352107
C       -0.88238508       0.88238508       0.88238508
C       -0.42964679       2.14678216       1.26886842
C        1.15201268       7.48678764       2.17456574
C        1.89634500       7.56405582       0.98723543
C        2.68929657       8.68337982       0.71019840
C        2.74760101       9.74034249       1.61605965
C        2.01209755       9.67401492       2.79635898
C        1.22055933       8.56036432       3.07799055
H       -9.07556497       8.19413292       4.90386575
H       -9.34536546       6.85317456       6.03146587
H       -9.48036595       6.59073087       4.25481700
H       -5.31952572       7.13684697       4.05856686
H       -2.92720438       6.69726786       3.87206473
H       -3.40703969       3.09021720       6.21079652
H       -5.81447413       3.54634556       6.40281647
H       -1.33770867       3.41782602       4.92657405
H       -0.96530442       4.95702257       5.71445481
H        0.35945996       5.01650538       0.65578727
H       -3.19723412       3.15939299       2.96402525
H       -3.93184709       0.90807458       2.36110040
H       -2.48506555      -0.56186060       0.99220584
H        0.55505425       2.47804474       0.94805708
H        1.88203656       6.75455918       0.26255228
H        3.26430776       8.72690915      -0.21164516
H        3.36791931      10.60530635       1.39605482
H        0.65580814       8.52220359       4.00736092
C        2.07241916      10.76381613       3.73566438
C        2.12293851      11.67652464       4.52233265
Br       2.20462402      13.15229711       5.79430871
C        9.04900397      -6.90265087       5.15864513
O        7.64525319      -6.68473098       5.00938044
C        7.21783613      -5.47647330       5.45123451
O        7.91536936      -4.60565876       5.94908760
C        5.74981941      -5.33891773       5.26007995
C        5.01108013      -6.22098235       4.46347524
C        3.63636592      -6.02923997       4.28782183
C        2.97723326      -4.94282018       4.88469226
C        3.72055322      -4.08506182       5.71354829
C        5.09451827      -4.27514795       5.89059074
C        1.49399528      -4.68241629       4.70429082
N        0.96396856      -5.11311402       3.40995769
N        0.39911614      -6.34064730       3.35506122
C       -0.10538989      -6.44932796       2.12030253
C        0.16916551      -5.26978652       1.38518133
C        0.84953374      -4.40445828       2.22993066
C        1.28718980      -3.02999398       1.96071946
C        2.51142670      -2.52230384       2.41793176
C        2.89618959      -1.20270728       2.14945262
C        2.07874703      -0.37972580       1.37836134
C        0.88238508      -0.88238508       0.88238508
C        0.48236733      -2.18938706       1.17354298
C       -0.83841997      -7.65000161       1.69775906
C       -1.51191954      -7.69943549       0.46743030
C       -2.22354950      -8.84230146       0.08552969
C       -2.27024469      -9.95086428       0.92818153
C       -1.60454233      -9.91241253       2.15040615
C       -0.89424553      -8.77554105       2.53650001
H        9.25052191      -7.95867378       4.96436794
H        9.38203187      -6.67167381       6.17630023
H        9.59757418      -6.30131277       4.42702687
H        5.49138170      -7.05923113       3.96432671
H        3.09143313      -6.73955481       3.66554903
H        3.23754029      -3.25127902       6.21923410
H        5.65320214      -3.58695230       6.52348173
H        1.26266584      -3.61630058       4.80314232
H        0.93674697      -5.21583185       5.48420299
H       -0.10734251      -5.05784425       0.36233094
H        3.20766745      -3.14619485       2.96679006
H        3.84402771      -0.82774415       2.52925021
H        2.39171811       0.63767243       1.16136511
H       -0.46304989      -2.55448466       0.77961280
H       -1.50473917      -6.85029368      -0.21047960
H       -2.74451494      -8.86411516      -0.86864398
H       -2.82737803     -10.83409046       0.62672943
H       -0.38360830      -8.76006317       3.49730150
C       -1.65317958     -11.05573076       3.02451016
C       -1.69391328     -12.01325979       3.75657228
Br      -1.75977623     -13.56150323       4.94025480
