73
Properties=species:S:1:pos:R:3 pbc="F F F"
C        0.00000000       0.00000000       0.00000000
C        0.88256635       0.88256635      -0.88256635
C        1.99903635       0.32287471      -1.51972723
C        2.80495889       1.12073336      -2.33533106
C        2.47654618       2.45767497      -2.49098814
O        3.15710494       3.35388672      -3.27168614
C        2.50944511       4.62606967      -3.04185603
C        1.23895986       4.43319989      -2.21310725
C        1.37503895       3.00598441      -1.85431924
C        0.55824128       2.23234739      -1.04433396
H        2.23453051      -0.72945344      -1.38263377
H        3.22186851       5.28131922      -2.52555308
H        2.28238418       5.08215581      -4.01299665
H        1.22998966       5.08982368      -1.34003673
H        0.34336686       4.60877617      -2.81618926
H       -0.31012577       2.66440229      -0.55750122
C        3.94950994       0.54364192      -2.99150814
C        4.90807145       0.06032785      -3.54105645
Br       6.45798433      -0.72115014      -4.42962958
C       -0.88256635      -0.88256635      -0.88256635
C       -1.77572875      -0.28370129      -1.78220825
C       -2.57879203      -1.08347889      -2.59875238
C       -2.47107805      -2.46072162      -2.49340962
O       -3.17463870      -3.36873694      -3.23930216
C       -2.80228148      -4.66272943      -2.71235990
C       -1.65547080      -4.51852956      -1.71126664
C       -1.59040159      -3.04636916      -1.59857186
C       -0.78017741      -2.27276869      -0.78197653
H       -1.84029629       0.79948508      -1.84689963
H       -3.68761534      -5.10350015      -2.23762532
H       -2.51690490      -5.31108816      -3.54954358
H       -1.89218348      -5.00533404      -0.76233255
H       -0.72503699      -4.92876483      -2.11453047
H       -0.08361987      -2.73691574      -0.09124213
C       -3.49338949      -0.46684391      -3.52442661
C       -4.25936486       0.04958789      -4.29967878
Br      -5.49788225       0.88461444      -5.55319597
C       -0.88256635       0.88256635       0.88256635
C       -0.34020052       2.03724606       1.46419170
C       -1.14290438       2.85385405       2.26426487
C       -2.46575070       2.49435608       2.46510251
O       -3.37501608       3.20370285       3.20395887
C       -4.57525115       2.39737180       3.20474787
C       -4.42430859       1.21935131       2.24160711
C       -2.99425084       1.34916217       1.89192960
C       -2.21797105       0.52653624       1.09041534
H        0.70053464       2.29830696       1.28993852
H       -4.74948135       2.04897282       4.23028665
H       -5.42265318       3.03330455       2.92157891
H       -4.65518525       0.27145405       2.73321077
H       -5.06247416       1.34393573       1.36192240
H       -2.64042551      -0.36300329       0.63435552
C       -0.58517430       4.04110391       2.85838180
C       -0.11807535       5.03542567       3.35595472
Br       0.63718414       6.64315986       4.16048806
C        0.88256635      -0.88256635       0.88256635
C        0.30393903      -1.94195120       1.59574805
C        1.10537939      -2.75867148       2.39697244
C        2.46354012      -2.49422776       2.46744141
O        3.37397566      -3.21766682       3.19103532
C        4.62766006      -2.51423964       3.03547111
C        4.48789391      -1.40384526       1.99352783
C        3.02836207      -1.44250061       1.76447992
C        2.25351838      -0.62206521       0.95933904
H       -0.76426335      -2.12958950       1.52238469
H        4.91079881      -2.10486523       4.01307678
H        5.39873123      -3.23676014       2.74204527
H        4.82896572      -0.44358439       2.38729997
H        5.04090527      -1.64610109       1.08132593
H        2.70322715       0.19308096       0.40163155
C        0.51004588      -3.84822838       3.12638574
C        0.01145407      -4.76073229       3.73726939
Br      -0.79472672      -6.23617392       4.72501658
