189
Properties=species:S:1:pos:R:3 pbc="F F F"
C        0.00000000       0.00000000       0.00000000
C       -3.09647904      -4.41836260      -8.48456241
O       -3.43743294      -3.57271080      -7.39301960
C       -2.42764211      -2.81694831      -6.86647507
C       -2.84078942      -1.83255726      -5.96985309
C       -1.91006198      -0.97445836      -5.37832595
C       -0.54588062      -1.09960828      -5.66299364
C       -0.13124131      -2.10296490      -6.53777446
C       -1.06799616      -2.95588171      -7.14055519
N        0.32308165      -0.18132434      -5.04204928
C        1.70351948      -0.14581421      -5.10520736
O        2.44161503      -0.88877020      -5.73709490
C        2.31766458       0.98414017      -4.35716824
C        3.21152984       1.77293941      -5.08340734
C        3.73517884       2.90096893      -4.48304663
N        3.35558739       3.26495895      -3.23351585
C        2.53010902       2.49060361      -2.50460340
C        2.19127575       2.88400735      -1.20203472
C        2.66925538       4.20603085      -0.65632203
C        1.35405129       2.09054031      -0.40002775
C        0.88061404       0.88061404      -0.88061404
C        1.20021279       0.47428575      -2.17043298
C        1.99689770       1.28985274      -3.01441277
C        4.72166404       3.78862850      -5.13573674
C        4.78050982       5.15870655      -4.81244910
C        5.71858854       6.01296438      -5.40240567
C        6.62334497       5.50660830      -6.32867656
Br       7.89900738       6.65243335      -7.12245971
C        6.59798785       4.15757334      -6.66722443
C        5.65601329       3.30806556      -6.07378663
H       -2.44517026      -5.23538274      -8.15843176
H       -2.63951862      -3.84945446      -9.30152412
H       -4.02206414      -4.86068514      -8.86560832
H       -3.89756417      -1.72549600      -5.73759924
H       -2.27266959      -0.21479752      -4.69123104
H        0.91625935      -2.24330872      -6.78661870
H       -0.69633811      -3.71819338      -7.81742943
H       -0.13138438       0.54552462      -4.50256777
H        3.46247057       1.50742186      -6.10591532
H        3.69471654       4.42429156      -0.97068206
H        2.66889458       4.20209687       0.43900493
H        2.00876776       5.00844419      -1.00057987
H        1.09082398       2.42024190       0.60275884
H        0.84008119      -0.49378989      -2.51450676
H        4.08523298       5.57219865      -4.08260150
H        5.73390656       7.06346994      -5.12509033
H        7.30932528       3.75168984      -7.38194003
H        5.68288075       2.25337251      -6.34109647
C       -6.86739191       7.22350373      -1.32583259
O       -5.54816365       6.77279470      -1.60750690
C       -5.36583376       5.41995810      -1.67600899
C       -4.13131385       5.02168422      -2.18687679
C       -3.82676437       3.66579437      -2.33283561
C       -4.74918781       2.68469427      -1.95301120
C       -5.97210764       3.08416959      -1.41563021
C       -6.28151645       4.44596882      -1.28112970
N       -4.37275822       1.34227543      -2.15332379
C       -5.07145803       0.20435574      -1.79581034
O       -6.16913653       0.13935156      -1.26015476
C       -4.40480972      -1.06677899      -2.18738429
C       -5.19196600      -1.96124506      -2.91466554
C       -4.60477726      -3.11212266      -3.40229448
N       -3.28214106      -3.34930416      -3.22261697
C       -2.52097544      -2.51900252      -2.48533808
C       -1.16505855      -2.81986856      -2.29239070
C       -0.54266961      -4.00888955      -2.98004912
C       -0.34370442      -1.99284197      -1.50807295
C       -0.88061404      -0.88061404      -0.88061404
C       -2.22074640      -0.56155932      -1.06262580
C       -3.05078893      -1.35295076      -1.89742353
C       -5.34543186      -4.15236529      -4.14823213
C       -4.69266723      -4.95093314      -5.10806509
C       -5.36855117      -5.95424041      -5.81116701
C       -6.71725240      -6.18063128      -5.56074615
Br      -7.63414926      -7.54000915      -6.49974202
C       -7.39220979      -5.41513167      -4.61544417
C       -6.71016125      -4.41191987      -3.91578435
H       -7.15490165       6.97610433      -0.29908144
H       -7.58786325       6.82196761      -2.04665540
H       -6.87498543       8.31361613      -1.42148973
H       -3.40400580       5.77334311      -2.48387638
H       -2.85722538       3.39606053      -2.74259908
H       -6.71875366       2.36102731      -1.10184298
H       -7.24772405       4.70640336      -0.86157725
H       -3.49130482       1.20861033      -2.63401352
H       -6.23611268      -1.73326197      -3.10643310
H       -1.22462702      -4.86478404      -3.00027910
H        0.36093145      -4.33752298      -2.45539499
H       -0.27017206      -3.74148009      -4.00613966
H        0.70938907      -2.23528129      -1.38241482
H       -2.62581741       0.30071062      -0.53569127
H       -3.63397466      -4.79401131      -5.31204716
H       -4.82954528      -6.55081802      -6.54210353
H       -8.44375399      -5.59351049      -4.40569068
H       -7.26225402      -3.85121078      -3.16388493
C        2.48284399      -4.94354871       8.39611348
O        2.91376904      -4.06626252       7.36290741
C        1.96580347      -3.23989151       6.82757963
C        2.46577690      -2.23650652       5.99878983
C        1.60447338      -1.30883726       5.40711625
C        0.22396228      -1.38151153       5.62297855
C       -0.27732109      -2.40275348       6.42900065
C        0.58969525      -3.32605312       7.03242569
N       -0.57156101      -0.39539850       5.00764408
C       -1.95038324      -0.29688637       5.00941576
O       -2.75093701      -1.03176560       5.57076832
C       -2.47592123       0.89405463       4.28899714
C       -3.36656786       1.69072669       5.01058204
C       -3.80895141       2.86868915       4.44155383
N       -3.35388710       3.27072306       3.22945203
C       -2.53069169       2.49185288       2.50277147
C       -2.11242113       2.92760219       1.23729450
C       -2.50300046       4.29446104       0.73414676
C       -1.27488415       2.13243375       0.43730143
C       -0.88061404       0.88061404       0.88061404
C       -1.27967221       0.43163071       2.13362859
C       -2.07775597       1.24499992       2.97840733
C       -4.78399363       3.77178490       5.09025075
C       -4.76479091       5.15642438       4.83045017
C       -5.69005789       6.02673891       5.41716179
C       -6.66018624       5.52248300       6.27596059
Br      -7.91874404       6.69056428       7.06459211
C       -6.71257413       4.15974496       6.55046654
C       -5.78303688       3.29414269       5.96068590
H        1.81128588      -5.71279345       8.00195809
H        2.01378676      -4.39130036       9.21763815
H        3.36803209      -5.44650624       8.79739737
H        3.53622339      -2.16958302       5.82034549
H        2.03375870      -0.53683093       4.77435355
H       -1.34082407      -2.50408649       6.62283175
H        0.15174675      -4.09980600       7.65445069
H       -0.05916720       0.33274758       4.52479323
H       -3.67792472       1.39115490       6.00672813
H       -3.53129086       4.54690908       1.01149022
H       -2.45048344       4.34046314      -0.35896006
H       -1.82381572       5.04786573       1.14611036
H       -0.94928320       2.49456311      -0.53553927
H       -0.98090966      -0.56722784       2.44711624
H       -4.01730457       5.56907184       4.15365673
H       -5.64419094       7.08832764       5.18994825
H       -7.47501603       3.75614689       7.21179224
H       -5.87071006       2.23084755       6.17579213
C        7.33750657       6.85707675       0.48929096
O        6.01418745       6.50419620       0.87288460
C        5.75920430       5.17107685       1.03375721
C        4.53722104       4.87842470       1.63771007
C        4.16497470       3.55412078       1.88295169
C        5.00494052       2.49867134       1.51123556
C        6.21382253       2.79170744       0.88145316
C        6.59194554       4.12226095       0.64699273
N        4.56513756       1.19526918       1.81393822
C        5.17453762      -0.00158637       1.48678863
O        6.23212855      -0.16370302       0.89410816
C        4.46122690      -1.20537554       1.99237055
C        5.23860286      -2.10289501       2.72637872
C        4.61719356      -3.18617388       3.31582695
N        3.27468047      -3.35247757       3.22690416
C        2.51892378      -2.52104965       2.48534261
C        1.13879416      -2.74955389       2.38896977
C        0.49227353      -3.85725323       3.18208151
C        0.32001437      -1.92042675       1.60417823
C        0.88061404      -0.88061404       0.88061404
C        2.24539129      -0.63365192       0.96588831
C        3.07793544      -1.42490600       1.79832178
C        5.34101755      -4.22506863       4.07994311
C        4.70311264      -4.92625025       5.12230257
C        5.36190470      -5.92685672       5.84519716
C        6.67772809      -6.24871419       5.53218755
Br       7.57063506      -7.60528283       6.49798254
C        7.33673775      -5.58100150       4.50504637
C        6.67200621      -4.57991867       3.78594060
H        7.54748459       6.53429553      -0.53531030
H        8.07625840       6.45444781       1.19074045
H        7.41329307       7.94840032       0.51796628
H        3.87352341       5.68864055       1.92965622
H        3.20826561       3.36767696       2.36317528
H        6.89740357       2.00777300       0.56993876
H        7.54420790       4.29907984       0.15776988
H        3.70830469       1.14312952       2.35153284
H        6.30380598      -1.92815006       2.84385171
H        1.12407975      -4.75042487       3.21518554
H       -0.45885616      -4.15989189       2.73095079
H        0.29836077      -3.51548144       4.20394960
H       -0.75091648      -2.10524927       1.55397425
H        2.66640808       0.17083796       0.36522794
H        3.66948810      -4.69389312       5.37665192
H        4.83502244      -6.44676704       6.64067735
H        8.36165989      -5.83463697       4.24665829
H        7.20860291      -4.09774673       2.97100008
