153
Properties=species:S:1:pos:R:3 pbc="F F F"
C        0.00000000       0.00000000       0.00000000
C        0.88189145       0.88189145      -0.88189145
C        1.74646157       1.80186725      -0.29439213
C        2.55331041       2.60609568      -1.10319114
C        2.50916117       2.48621687      -2.50123618
C        1.62465704       1.56398042      -3.07786043
C        0.81350402       0.76096310      -2.26970291
C        3.37639282       3.32508111      -3.32574212
N        3.42038884       4.64716971      -3.13133369
N        4.33836645       5.10965736      -4.01252867
C        4.67176877       6.52312657      -3.89602883
N        4.56428790       7.28735162      -5.12490329
N        5.65064484       7.94689483      -5.59144685
C        5.19220680       8.58064648      -6.67710396
C        3.81195810       8.39540487      -6.85328186
Cl       2.85487104       9.07328341      -8.07116702
C        3.42384392       7.57747135      -5.81843016
C        4.89881907       4.11140587      -4.79607764
C        5.90433890       4.28759600      -5.86181315
C        5.77397335       3.58901383      -7.07555072
C        6.70584146       3.73478491      -8.10781463
C        7.77893653       4.60439910      -7.94907484
Br       9.01318280       4.84758561      -9.35480558
C        7.93726075       5.29828021      -6.75424291
C        7.02460336       5.11286603      -5.70822943
C        4.28551488       2.94637179      -4.34772823
Cl       4.59329521       1.33995807      -4.84078224
H        1.80035922       1.90356674       0.78645215
H        3.22516438       3.32545401      -0.63878902
H        1.55317824       1.46633600      -4.15957230
H        0.13404139       0.05000903      -2.73055302
H        5.68560644       6.60057854      -3.49113068
H        3.98502219       6.98743972      -3.17715257
H        5.88052370       9.15754868      -7.27824007
H        2.45729067       7.18835865      -5.53004933
H        4.92979819       2.91997324      -7.24209515
H        6.58183535       3.16717350      -9.02626802
H        8.76540635       5.99059487      -6.62178491
H        7.21225539       5.65193229      -4.78391827
C       -0.88189145      -0.88189145      -0.88189145
C       -0.60436166      -2.24158702      -0.99677227
C       -1.41355948      -3.04638119      -1.80265655
C       -2.51037038      -2.49917457      -2.48706928
C       -2.76932249      -1.12629149      -2.37088391
C       -1.95788427      -0.31862021      -1.56766555
C       -3.35360069      -3.36460100      -3.30901436
N       -2.80381214      -4.18255083      -4.21252927
N       -3.83913441      -4.86368195      -4.75773612
C       -3.47838429      -5.93066009      -5.68187980
N       -4.12658724      -5.87115018      -6.97880540
N       -4.86965761      -6.92297164      -7.39635726
C       -5.25717147      -6.56634406      -8.62644171
C       -4.69950590      -5.34007926      -9.02105967
Cl      -4.90309856      -4.57909234     -10.51713057
C       -3.94821960      -4.92440885      -7.94711697
C       -5.07135664      -4.50191398      -4.23303196
C       -6.38901411      -5.03547817      -4.62925577
C       -7.48132584      -4.16464246      -4.79256960
C       -8.74260271      -4.63528909      -5.17054920
C       -8.92701226      -5.99169161      -5.41370659
Br     -10.61133169      -6.63008131      -5.97416100
C       -7.86610539      -6.87555749      -5.24812100
C       -6.61735971      -6.40254939      -4.82578973
C       -4.76241718      -3.53464549      -3.28255223
Cl      -5.82649124      -2.73827527      -2.20926901
H        0.23569421      -2.68486660      -0.46830141
H       -1.19038273      -4.10793949      -1.89108520
H       -3.59915549      -0.67133417      -2.90859688
H       -2.17146692       0.74310507      -1.48624159
H       -3.69345691      -6.88759657      -5.19626218
H       -2.39824498      -5.88248900      -5.86888051
H       -5.91365247      -7.22175799      -9.18090199
H       -3.32191781      -4.05592476      -7.79785609
H       -7.36369807      -3.09247796      -4.63569055
H       -9.56781159      -3.93540194      -5.27206334
H       -7.99392610      -7.93710101      -5.44675902
H       -5.83149403      -7.13801307      -4.67859884
C       -0.88189145       0.88189145       0.88189145
C       -1.84071115       0.29698743       1.70502237
C       -2.64488928       1.10571290       2.51199504
C       -2.48644602       2.50061068       2.50955753
C       -1.52511004       3.07511925       1.66626859
C       -0.72200651       2.26718338       0.85498013
C       -3.32647531       3.32436757       3.37637317
N       -4.65400565       3.16530325       3.37958334
N       -5.11781418       4.03399197       4.30874634
C       -6.54253481       3.94754328       4.60084609
N       -7.27033100       5.19941839       4.50679342
N       -7.94678684       5.65467468       5.58752500
C       -8.53838401       6.76924615       5.14232708
C       -8.31058190       6.97715845       3.77290448
Cl      -8.92901157       8.23842790       2.83188200
C       -7.51028421       5.93095664       3.37850458
C       -4.11473781       4.77448675       4.91707803
C       -4.28992698       5.81735781       5.94646326
C       -3.55577027       7.01446906       5.86829857
C       -3.69943253       8.02502850       6.82397998
C       -4.60218389       7.86159802       7.86862856
Br      -4.84150904       9.23993207       9.13413288
C       -5.33190605       6.68250043       7.97537740
C       -5.14952672       5.65659629       7.03957582
C       -2.94569327       4.31083417       4.32308747
Cl      -1.33572965       4.75108011       4.68722575
H       -1.97276247      -0.78170476       1.72641610
H       -3.39464022       0.64345580       3.15131139
H       -1.39660380       4.15526078       1.62722196
H        0.01946060       2.72632611       0.20773794
H       -6.65866938       3.51792547       5.60072080
H       -7.00685957       3.26036355       3.88239137
H       -9.11770298       7.36738083       5.83122864
H       -7.10258503       5.65796472       2.41514890
H       -2.85953462       7.18508723       5.04724472
H       -3.10423237       8.93050682       6.74053768
H       -6.05004472       6.54701321       8.78072819
H       -5.71811094       4.74277468       7.18722032
C        0.88189145      -0.88189145       0.88189145
C        0.77811945      -0.79671958       2.26788191
C        1.58463588      -1.60569104       3.07227031
C        2.48896659      -2.51171212       2.49593552
C        2.59040250      -2.57687999       1.09921540
C        1.78653835      -1.76494136       0.29269031
C        3.30846625      -3.36097903       3.35777077
N        4.00736830      -2.82683810       4.36468584
N        4.60778071      -3.87277002       4.98000175
C        5.32286474      -3.55827280       6.20978663
N        6.69834580      -4.01786079       6.26033623
N        7.08245552      -4.84869508       7.25783592
C        8.39200959      -5.01720631       7.04074134
C        8.85422185      -4.23760760       5.96881538
Cl      10.44939712      -4.13150671       5.41841764
C        7.74331895      -3.57770254       5.49872393
C        4.32276946      -5.09490337       4.38862975
C        4.83801504      -6.41496863       4.80076437
C        5.27245037      -7.33571576       3.83037177
C        5.76955043      -8.59351559       4.18537498
C        5.86051987      -8.94425345       5.52763714
Br       6.57768859     -10.61821818       6.01966723
C        5.42683764      -8.05652487       6.50642137
C        4.88841460      -6.81637733       6.14090690
C        3.46964472      -4.77096087       3.33900932
Cl       2.67781356      -5.83443832       2.26178364
H        0.07818016      -0.10692821       2.73236543
H        1.50141532      -1.53298382       4.15500827
H        3.29939177      -3.25372405       0.62597071
H        1.87522495      -1.82731408      -0.78793557
H        4.75530393      -3.97372509       7.04828664
H        5.35215617      -2.46795183       6.32950648
H        8.94859710      -5.68667703       7.68103832
H        7.61596593      -2.85398661       4.70574611
H        5.23935407      -7.08151304       2.77099947
H        6.08172759      -9.28569891       3.40785037
H        5.50375970      -8.31376406       7.56026236
H        4.53270428      -6.17393537       6.94146629
