161
Properties=species:S:1:pos:R:3 pbc="F F F"
C        0.00000000       0.00000000       0.00000000
C        0.88189145       0.88189145      -0.88189145
C        1.74646157       1.80186725      -0.29439213
C        2.55331041       2.60609568      -1.10319114
C        2.50916117       2.48621687      -2.50123618
C        1.62465704       1.56398042      -3.07786043
C        0.81350402       0.76096310      -2.26970291
C        3.37639282       3.32508111      -3.32574212
N        3.42038884       4.64716971      -3.13133369
N        4.33836645       5.10965736      -4.01252867
C        4.67176877       6.52312657      -3.89602883
N        4.56428790       7.28735162      -5.12490329
N        5.65064484       7.94689483      -5.59144685
C        5.19220680       8.58064648      -6.67710396
C        3.81195810       8.39540487      -6.85328186
Cl       2.85487104       9.07328341      -8.07116702
C        3.42384392       7.57747135      -5.81843016
C        4.89881907       4.11140587      -4.79607764
C        5.90433890       4.28759600      -5.86181315
C        5.77397335       3.58901383      -7.07555072
C        6.70584146       3.73478491      -8.10781463
C        7.77893653       4.60439910      -7.94907484
C        7.93726075       5.29828021      -6.75424291
C        7.02460336       5.11286603      -5.70822943
C        4.28551488       2.94637179      -4.34772823
Cl       4.59329521       1.33995807      -4.84078224
H        1.80035922       1.90356674       0.78645215
H        3.22516438       3.32545401      -0.63878902
H        1.55317824       1.46633600      -4.15957230
H        0.13404139       0.05000903      -2.73055302
H        5.68560644       6.60057854      -3.49113068
H        3.98502219       6.98743972      -3.17715257
H        5.88052370       9.15754868      -7.27824007
H        2.45729067       7.18835865      -5.53004933
H        4.92979819       2.91997324      -7.24209515
H        6.58183535       3.16717350      -9.02626802
H        8.76540635       5.99059487      -6.62178491
H        7.21225539       5.65193229      -4.78391827
C        8.72109899       4.79003563      -9.02214006
C        9.51016006       4.94550623      -9.92083218
Br      10.78600507       5.19688903     -11.37394133
C       -0.88189145      -0.88189145      -0.88189145
C       -0.61065088      -2.24352502      -0.98854504
C       -1.41984312      -3.04830260      -1.79445151
C       -2.51043086      -2.49905731      -2.48712606
C       -2.76303424      -1.12432322      -2.37914043
C       -1.95157376      -0.31669331      -1.57590295
C       -3.35387996      -3.36437581      -3.30896028
N       -2.80369659      -4.18962199      -4.20557367
N       -3.83969209      -4.86828976      -4.75257063
C       -3.47969501      -5.94171321      -5.66951595
N       -4.12107205      -5.88549360      -6.96997716
N       -4.86733366      -6.93566522      -7.38598764
C       -5.24686492      -6.58330670      -8.61978562
C       -4.68104715      -5.36186248      -9.01773519
Cl      -4.87328715      -4.60741970     -10.51861463
C       -3.93307324      -4.94455598      -7.94211620
C       -5.07269176      -4.49769960      -4.23591123
C       -6.39101869      -5.02663559      -4.63609377
C       -7.47809028      -4.15116340      -4.80928422
C       -8.73981223      -4.61737439      -5.19125439
C       -8.92983887      -5.97404358      -5.42852802
C       -7.87424846      -6.86237654      -5.25315888
C       -6.62526808      -6.39351752      -4.82691323
C       -4.76365136      -3.52721162      -3.28875193
Cl      -5.82906815      -2.72010691      -2.22486045
H        0.22449525      -2.68834386      -0.45362519
H       -1.20158307      -4.11140021      -1.87642414
H       -3.58785247      -0.66792488      -2.92330920
H       -2.16020396       0.74648779      -1.50088727
H       -3.70202665      -6.89509638      -5.18019263
H       -2.39840150      -5.89990789      -5.85130510
H       -5.90385258      -7.23820603      -9.17425384
H       -3.30315551      -4.07848438      -7.79405876
H       -7.35584449      -3.07882507      -4.65719702
H       -9.56096024      -3.91387527      -5.30044136
H       -8.00642377      -7.92425364      -5.44710871
H       -5.84387100      -7.13216438      -4.67207057
C      -10.21584326      -6.45705130      -5.86038012
C      -11.29287195      -6.86157026      -6.22205626
Br     -13.03433623      -7.51564322      -6.80685598
C       -0.88189145       0.88189145       0.88189145
C       -1.84721508       0.29764760       1.69785826
C       -2.65138517       1.10636006       2.50485199
C       -2.48648786       2.50050357       2.50962279
C       -1.51860246       3.07443367       1.67346176
C       -0.71548326       2.26653573       0.86215104
C       -3.32671671       3.32413702       3.37636231
N       -4.65496855       3.17122458       3.37269912
N       -5.11906652       4.03775410       4.30373186
C       -6.54551221       3.95657193       4.58884004
N       -7.26707094       5.21223374       4.49723813
N       -7.94642590       5.66562653       5.57693408
C       -8.53079279       6.78497804       5.13418641
C       -8.29567697       6.99815667       3.76681118
Cl      -8.90389590       8.26661891       2.82880666
C       -7.49840011       5.95008439       3.37126092
C       -4.11541397       4.77076480       4.92012382
C       -4.29055914       5.80966981       5.95351909
C       -3.55052318       7.00370814       5.88430658
C       -3.69394926       8.01049646       6.84399529
C       -4.60228646       7.84643312       7.88369088
C       -5.33793743       6.67025538       7.98159106
C       -5.15595833       5.64785107       7.04188943
C       -2.94577945       4.30443963       4.32939583
Cl      -1.33550647       4.73551883       4.70301021
H       -1.98434776      -0.78050724       1.71363328
H       -3.40622436       0.64463931       3.13854375
H       -1.38492612       4.15413585       1.64002457
H        0.03109468       2.72521726       0.22048087
H       -6.66827174       3.52288188       5.58616204
H       -7.00966706       3.27488280       3.86506463
H       -9.11053356       7.38260591       5.82317298
H       -7.08749869       5.67965740       2.40854256
H       -2.84970212       7.17488453       5.06727993
H       -3.09419005       8.91357764       6.76750917
H       -6.06042580       6.53438345       8.78297687
H       -5.72943879       4.73600653       7.18266063
C       -4.78459421       8.89494644       8.85373403
C       -4.93727696       9.77307635       9.66614516
Br      -5.18415204      11.19293814      10.97974525
C        0.88189145      -0.88189145       0.88189145
C        0.82472362      -0.75097579       2.26702153
C        1.63109731      -1.56001017       3.07148975
C        2.48848914      -2.51147609       2.49664900
C        2.54359737      -2.62266257       1.10023795
C        1.73989679      -1.81081347       0.29345976
C        3.30841574      -3.35941462       3.35938568
N        4.05491753      -2.81701937       4.32695534
N        4.64212742      -3.86206042       4.95636464
C        5.40511129      -3.53276700       6.15304589
N        6.76674860      -4.03391254       6.17588167
N        7.15657059      -4.84548527       7.18693066
C        8.45280390      -5.06196446       6.93518888
C        8.90455113      -4.33066164       5.82543206
Cl      10.48400207      -4.29207058       5.22324882
C        7.80009767      -3.65064920       5.36899855
C        4.30115568      -5.09213070       4.41301620
C        4.78843357      -6.41457778       4.85073669
C        5.16345688      -7.37797057       3.89711046
C        5.63270890      -8.63939175       4.27634036
C        5.75532884      -8.95147060       5.62561103
C        5.38031018      -8.02083052       6.58864318
C        4.86890073      -6.77605854       6.20073956
C        3.42556633      -4.77370447       3.38034411
Cl       2.56775231      -5.84413661       2.36214660
H        0.16134567      -0.02543458       2.73069355
H        1.58447551      -1.45150563       4.15342628
H        3.21613646      -3.33582455       0.62712552
H        1.79236340      -1.90910183      -0.78686178
H        4.85190313      -3.90410631       7.02130622
H        5.47163082      -2.44075974       6.23722393
H        9.00857741      -5.72875605       7.57897899
H        7.66997120      -2.94794367       4.55778378
H        5.10464882      -7.15548274       2.83173501
H        5.89871574      -9.36465189       3.51190924
H        5.48263300      -8.24790943       7.64724369
H        4.55860577      -6.09840583       6.99109435
C        6.27492030     -10.23385672       6.02449766
C        6.71007814     -11.30785510       6.35856522
Br       7.41369157     -13.04441964       6.89872421
