174
Properties=species:S:1:pos:R:3 pbc="F F F"
C        1.79179547       1.79179547      -1.79179547
C        2.65636559       2.71177128      -1.20429615
C        3.46321444       3.51599970      -2.01309516
C        3.41906520       3.39612090      -3.41114020
C        2.53456106       2.47388444      -3.98776446
C        1.72340804       1.67086712      -3.17960693
C        4.28629684       4.23498513      -4.23564615
N        4.33029286       5.55707374      -4.04123772
N        5.24827048       6.01956139      -4.92243269
C        5.58167280       7.43303060      -4.80593286
N        5.47419193       8.19725564      -6.03480731
N        6.56054887       8.85679885      -6.50135087
C        6.10211082       9.49055050      -7.58700799
C        4.72186212       9.30530890      -7.76318588
Cl       3.76477507       9.98318744      -8.98107104
C        4.33374794       8.48737537      -6.72833418
C        5.80872309       5.02130990      -5.70598167
C        6.81424292       5.19750003      -6.77171717
C        6.68387737       4.49891785      -7.98545475
C        7.61574548       4.64468893      -9.01771866
C        8.68884055       5.51430313      -8.85897886
Br       9.92308683       5.75748963     -10.26470961
C        8.84716478       6.20818424      -7.66414694
C        7.93450739       6.02277006      -6.61813346
C        5.19541890       3.85627582      -5.25763226
Cl       5.50319923       2.24986209      -5.75068626
H        2.71026324       2.81347076      -0.12345187
H        4.13506840       4.23535804      -1.54869305
H        2.46308227       2.37624002      -5.06947632
H        1.04394542       0.95991306      -3.64045705
H        6.59551047       7.51048257      -4.40103470
H        4.89492622       7.89734375      -4.08705659
H        6.79042772      10.06745271      -8.18814410
H        3.36719470       8.09826267      -6.43995336
H        5.83970221       3.82987726      -8.15199917
H        7.49173937       4.07707753      -9.93617204
H        9.67531037       6.90049889      -7.53168893
H        8.12215941       6.56183631      -5.69382229
C       -1.79179547      -1.79179547      -1.79179547
C       -1.37728619      -2.11351851      -3.08162832
C       -2.18492620      -2.92175513      -3.88562797
C       -3.40362320      -3.42211701      -3.40058609
C       -3.81273660      -3.07918460      -2.10428876
C       -3.00722497      -2.26701694      -1.29964018
C       -4.22230090      -4.28113710      -4.25349012
N       -4.51817303      -3.90768475      -5.50274654
N       -5.23745375      -4.93012166      -6.02268914
C       -5.56141793      -4.82033085      -7.43888747
N       -6.96692314      -4.97371244      -7.76561930
N       -7.34335122      -5.94490269      -8.63044468
C       -8.66402523      -5.76589363      -8.74975045
C       -9.11134482      -4.64296065      -8.03605142
Cl     -10.69540491      -4.05449369      -7.97913495
C       -7.98811733      -4.13065780      -7.43068237
C       -5.43019863      -5.97505246      -5.13076357
C       -6.18774416      -7.21705832      -5.37865765
C       -7.05320600      -7.72292073      -4.39212324
C       -7.78878662      -8.89471389      -4.59465257
C       -7.68563076      -9.57210173      -5.80439005
Br      -8.71259580     -11.12517652      -6.10751374
C       -6.82814014      -9.09935287      -6.79200294
C       -6.06085775      -7.95000085      -6.56455230
C       -4.76367438      -5.56453406      -3.98111854
Cl      -4.54051668      -6.43500070      -2.52823021
H       -0.43326704      -1.74203462      -3.47188421
H       -1.85740030      -3.16775341      -4.89396577
H       -4.76355666      -3.43420430      -1.71103765
H       -3.33660018      -2.01074354      -0.29697180
H       -4.96501760      -5.56005623      -7.98195390
H       -5.26487635      -3.82408079      -7.79036942
H       -9.23378494      -6.45130507      -9.36093451
H       -7.83853385      -3.26154119      -6.80533569
H       -7.17712065      -7.20130702      -3.44315098
H       -8.43606594      -9.26490580      -3.80401721
H       -6.74734283      -9.61300894      -7.74714642
H       -5.38148067      -7.64200971      -7.35432764
C       -1.79179547       1.79179547       1.79179547
C       -1.48911845       1.94049442       3.14282015
C       -2.29630925       2.74907776       3.94692229
C       -3.40150338       3.42221667       3.40260624
C       -3.70020305       3.25257858       2.04342833
C       -2.89542964       2.44039735       1.23805511
C       -4.21994861       4.27749286       4.25948666
N       -4.68321676       3.81864393       5.42674363
N       -5.35167124       4.85721646       5.98137686
C       -5.83511554       4.64608315       7.33943756
N       -7.24606484       4.91726354       7.54292650
N       -7.61732439       5.83482852       8.46654569
C       -8.95426853       5.78811425       8.43728653
C       -9.42903901       4.79430691       7.56701098
Cl     -11.04735425       4.38785165       7.29382765
C       -8.30224293       4.22535170       7.02186287
C       -5.34517450       5.99834792       5.19249224
C       -6.00095306       7.28466989       5.49783718
C       -6.70218771       7.97390618       4.49215609
C       -7.33816430       9.19279280       4.74719598
C       -7.30046157       9.73464792       6.02701305
Br      -8.19859470      11.35236970       6.39432167
C       -6.60401914       9.07892868       7.03654813
C       -5.93181955       7.88125527       6.76233608
C       -4.60188833       5.63197987       4.07545878
Cl      -4.14048254       6.61016978       2.75309527
H       -0.63302132       1.43359593       3.58056862
H       -2.05678027       2.85949697       5.00284225
H       -4.56430395       3.74420791       1.60028676
H       -3.13839429       2.31946033       0.18646090
H       -5.23165034       5.26123940       8.01413800
H       -5.67608877       3.59436700       7.60887079
H       -9.51726695       6.46829039       9.06046719
H       -8.17128505       3.40994977       6.32417590
H       -6.77335863       7.56312967       3.48509034
H       -7.85773078       9.70533640       3.94192176
H       -6.57694636       9.48586826       8.04468358
H       -5.37436950       7.42688988       7.57655864
C        1.79179547      -1.79179547       1.79179547
C        2.96818905      -2.32884644       1.27539753
C        3.77395321      -3.13373371       2.08462238
C        3.41468703      -3.39535092       3.41628835
C        2.22112684      -2.85740513       3.91767800
C        1.41148828      -2.05470932       3.10768449
C        4.28324808      -4.22465119       4.24902885
N        4.71033740      -5.41181838       3.80644853
N        5.51671647      -5.89054787       4.78300021
C        6.22472705      -7.12502350       4.47088569
N        6.07159668      -8.18926901       5.44538919
N        7.17323923      -8.71093811       6.03452126
C        6.68427995      -9.68652441       6.80886495
C        5.29787617      -9.84050483       6.65197590
Cl       4.32304596     -10.99440160       7.41158599
C        4.92977462      -8.87782602       5.74185687
C        5.62381829      -5.03914681       5.87304956
C        6.40010249      -5.27817414       7.10518350
C        5.84589892      -4.96339563       8.35895542
C        6.55161114      -5.18005806       9.54648387
C        7.82372338      -5.73904751       9.49935164
Br       8.76365070      -6.08335564      11.09827973
C        8.39919742      -6.04861157       8.27168695
C        7.70405220      -5.78702714       7.08433156
C        4.83243596      -3.94858200       5.52830902
Cl       4.60163424      -2.49931066       6.40280269
H        3.26694396      -2.13104771       0.24919421
H        4.69089669      -3.55321469       1.67500810
H        1.90667193      -3.06285560       4.93927108
H        0.49029356      -1.64378441       3.51023755
H        7.28416628      -6.88458137       4.33828008
H        5.84561141      -7.51557776       3.51813738
H        7.36130863     -10.24695104       7.43776486
H        3.97538132      -8.63329846       5.29673094
H        4.84056940      -4.54875804       8.43225121
H        6.09812422      -4.91028221      10.49658252
H        9.38851500      -6.49739913       8.22158407
H        8.21130499      -6.01531410       6.15119892
C       -0.00445707       0.01189536      -1.78238275
H       -0.66409135       0.67374010      -2.43557963
H        0.65740317      -0.63156657      -2.45157240
C       -0.90989263      -0.90692880      -0.91072765
C        0.90977584       0.90977584      -0.90977584
C       -0.00465871       1.77757030       0.00794375
H       -0.66225468       2.44313916      -0.64384735
H        0.64322798       2.43503045       0.67728295
C       -1.78241447       0.00034974      -0.00472694
H       -2.45427497      -0.65498947       0.64260836
H       -2.43311707       0.67328779      -0.65473579
C       -0.91132561       0.90220522       0.91563759
C       -0.01476271      -0.02253852       1.78660255
H       -0.67934791      -0.69751639       2.42135241
H        0.63392994       0.61504881       2.47327442
C        0.01484550      -1.77751727      -0.01636693
H        0.67870853      -2.42144646      -0.68295456
H       -0.62264859      -2.45592969       0.64226336
C        1.78714474       0.01002794       0.00389507
H        2.44202412       0.67113390       0.66197326
H        2.45385902      -0.65136977      -0.64189061
C        0.91606151      -0.90478549       0.90901405
