86
Properties=species:S:1:pos:R:3 pbc="F F F"
C        1.79296214       1.79296214      -1.79296214
C        1.48946998       3.15030939      -1.92470850
C        2.27620013       3.98699061      -2.72436869
C        3.35974852       3.39430963      -3.36915970
O        4.23752871       4.04122578      -4.18630381
C        5.14000628       3.11520433      -4.60980837
C        4.84249381       1.89066106      -4.06963674
C        3.69242456       2.04628551      -3.26132247
C        2.88908850       1.21929454      -2.45198117
H        0.63282811       3.57392034      -1.40323181
H        2.05893816       5.04199323      -2.84044596
H        5.91043004       3.48073061      -5.27406983
H        3.11692390       0.16268975      -2.34319077
C        5.55946997       0.65901318      -4.27600701
C        6.15993750      -0.37249192      -4.44884212
Br       7.13084271      -2.04034842      -4.72830188
C       -1.79296214      -1.79296214      -1.79296214
C       -1.80779920      -3.17404886      -1.58263981
C       -2.60413427      -4.01140527      -2.37201988
C       -3.36630440      -3.39488943      -3.36202403
O       -4.19986167      -4.03847273      -4.22672390
C       -4.75183604      -3.08636436      -5.02681859
C       -4.27658807      -1.84863775      -4.67756578
C       -3.37685808      -2.02282498      -3.60034948
C       -2.56895073      -1.19554284      -2.79587065
H       -1.19660549      -3.61587765      -0.79749713
H       -2.63073773      -5.08457635      -2.22606327
H       -5.44466468      -3.44608981      -5.77447599
H       -2.55060553      -0.12057234      -2.95162654
C       -4.62006648      -0.58914885      -5.28527483
C       -4.90772965       0.46567310      -5.79423116
Br      -5.37285666       2.17123099      -6.61717050
C       -1.79296214       1.79296214       1.79296214
C       -3.16139582       1.52472464       1.87836741
C       -3.99836365       2.31236620       2.67682959
C       -3.39464390       3.36081149       3.36776246
O       -4.03997921       4.23356465       4.19151444
C       -3.10181134       5.09741676       4.66579088
C       -1.87116123       4.78048470       4.15114568
C       -2.03538029       3.65774613       3.30690612
C       -1.20828808       2.85408814       2.49798799
H       -3.59345413       0.69494524       1.32158089
H       -5.06183853       2.12204587       2.75749295
H       -3.46461872       5.85919450       5.34141726
H       -0.14310173       3.05463432       2.42506836
C       -0.62652032       5.45614323       4.41182661
C        0.41586644       6.02200725       4.63014689
Br       2.10131767       6.93696152       4.98315231
C        1.79296214      -1.79296214       1.79296214
C        3.17829297      -1.61319524       1.77299966
C        4.01578106      -2.40349283       2.56828555
C        3.39496884      -3.36266311       3.36558591
O        4.03796562      -4.22311439       4.20397830
C        3.08117960      -4.98957097       4.79426841
C        1.84107708      -4.62326558       4.33844895
C        2.01861129      -3.57006710       3.41135414
C        1.19126383      -2.76515485       2.60394554
H        3.62340180      -0.85160303       1.13497544
H        5.09220503      -2.28094217       2.56823015
H        3.43987177      -5.72977873       5.49557998
H        0.11301173      -2.89727991       2.61251277
C        0.57660742      -5.19512511       4.72275763
C       -0.48238592      -5.67405747       5.04461615
Br      -2.19468858      -6.44845059       5.56503416
C       -0.00445707       0.01189536      -1.78238275
H       -0.66409135       0.67374010      -2.43557963
H        0.65740317      -0.63156657      -2.45157240
C       -0.90989263      -0.90692880      -0.91072765
C        0.90977584       0.90977584      -0.90977584
C       -0.00465871       1.77757030       0.00794375
H       -0.66225468       2.44313916      -0.64384735
H        0.64322798       2.43503045       0.67728295
C       -1.78241447       0.00034974      -0.00472694
H       -2.45427497      -0.65498947       0.64260836
H       -2.43311707       0.67328779      -0.65473579
C       -0.91132561       0.90220522       0.91563759
C       -0.01476271      -0.02253852       1.78660255
H       -0.67934791      -0.69751639       2.42135241
H        0.63392994       0.61504881       2.47327442
C        0.01484550      -1.77751727      -0.01636693
H        0.67870853      -2.42144646      -0.68295456
H       -0.62264859      -2.45592969       0.64226336
C        1.78714474       0.01002794       0.00389507
H        2.44202412       0.67113390       0.66197326
H        2.45385902      -0.65136977      -0.64189061
C        0.91606151      -0.90478549       0.90901405
