65
Properties=species:S:1:pos:R:3 pbc="F F F"
C        0.00000000       0.00000000       0.00000000
C        0.88305812       0.88305812      -0.88305812
C        0.57956596       2.24040537      -1.01480448
C        1.36629611       3.07708659      -1.81446466
C        2.44984450       2.48440561      -2.45925568
O        3.32762469       3.13132175      -3.27639979
C        4.23010225       2.20530031      -3.69990434
C        3.93258979       0.98075703      -3.15973271
C        2.78252053       1.13638149      -2.35141844
C        1.97918448       0.30939052      -1.54207715
H       -0.27707591       2.66401632      -0.49332779
H        1.14903413       4.13208921      -1.93054194
H        5.00052601       2.57082659      -4.36416581
H        2.20701987      -0.74721427      -1.43328674
C        4.64956595      -0.25089085      -3.36610299
C        5.25003348      -1.28239594      -3.53893810
Br       6.22093869      -2.95025245      -3.81839785
C       -0.88305812      -0.88305812      -0.88305812
C       -1.02958925      -2.23642516      -0.56876139
C       -1.82989343      -3.07293301      -1.35502092
C       -2.45912249      -2.48444146      -2.44994183
O       -3.27438076      -3.13186530      -3.32910018
C       -3.68135621      -2.21029365      -4.24365704
C       -3.13258615      -0.98806516      -3.95242823
C       -2.33641089      -1.14042167      -2.79348790
C       -1.52661782      -0.31355233      -1.99048200
H       -0.51992898      -2.65685501       0.29651579
H       -1.95738304      -4.12486331      -1.12941892
H       -4.34208190      -2.57677180      -5.01666471
H       -1.40642598       0.73998309      -2.22664945
C       -3.32154842       0.23889631      -4.68212598
C       -3.47980432       1.26647654      -5.29324785
Br      -3.73569074       2.92798686      -6.28138022
C       -0.88305812       0.88305812       0.88305812
C       -2.26864682       0.86053274       0.70559625
C       -3.10616147       1.65555453       1.49613135
C       -2.48502857       2.45604215       2.45243506
O       -3.12800548       3.29463195       3.31270880
C       -2.17091180       3.88797994       4.07641517
C       -0.93063267       3.43391565       3.70853121
C       -1.10841830       2.50432211       2.65758005
C       -0.28104439       1.69717631       1.85243144
H       -2.71399403       0.22013923      -0.05386506
H       -4.18279116       1.65345456       1.37541956
H       -2.52954758       4.58985195       4.81611888
H        0.79740405       1.70769498       1.98280140
C        0.33414533       3.82128891       4.27763451
C        1.39339691       4.14571401       4.75425853
Br       3.10611712       4.67028196       5.52491925
C        0.88305812      -0.88305812       0.88305812
C        2.27239000      -0.80192974       0.76045606
C        3.11001056      -1.59519040       1.55264641
C        2.48512122      -2.45481959       2.45356497
O        3.12757215      -3.30155665       3.30621744
C        2.16636584      -3.95942177       4.00951929
C        0.92400897      -3.53806550       3.61100506
C        1.10472009      -2.56240394       2.60319643
C        0.27730095      -1.75609113       1.79726007
H        2.72060858      -0.11636522       0.04329440
H        4.18950476      -1.54819896       1.47396156
H        2.52408677      -4.67558113       4.73585050
H       -0.80404344      -1.81193171       1.88520407
C       -0.34515876      -3.99419586       4.11574099
C       -1.40808674      -4.37620503       4.53845734
Br      -3.12675138      -4.99388154       5.22195392
