57
Properties=species:S:1:pos:R:3 pbc="F F F"
C        0.00000000       0.00000000       0.00000000
C        0.88305812       0.88305812      -0.88305812
C        0.57956596       2.24040537      -1.01480448
C        1.36629611       3.07708659      -1.81446466
C        2.44984450       2.48440561      -2.45925568
O        3.32762469       3.13132175      -3.27639979
C        4.23010225       2.20530031      -3.69990434
C        3.93258979       0.98075703      -3.15973271
Br       4.86448988      -0.62009504      -3.42796545
C        2.78252053       1.13638149      -2.35141844
C        1.97918448       0.30939052      -1.54207715
H       -0.27707591       2.66401632      -0.49332779
H        1.14903413       4.13208921      -1.93054194
H        5.00052601       2.57082659      -4.36416581
H        2.20701987      -0.74721427      -1.43328674
C       -0.88305812      -0.88305812      -0.88305812
C       -0.78931004      -2.27263282      -0.77283294
C       -1.58237076      -3.11025723      -1.56521937
C       -2.45415972      -2.48513392      -2.45421215
O       -3.30280354      -3.12754816      -3.30499454
C       -3.97433539      -2.16607888      -3.99489264
C       -3.55971126      -0.92359247      -3.58977580
Br      -4.17174621       0.72639549      -4.22700958
C       -2.57459328      -1.10448555      -2.59124164
C       -1.76824284      -0.27706713      -1.78534217
H       -0.09439579      -2.72103131      -0.06484110
H       -1.52579025      -4.18993594      -1.49593909
H       -4.69363315      -2.52373942      -4.71814584
H       -1.83387252       0.80446562      -1.86368544
C       -0.88305812       0.88305812       0.88305812
C       -2.20935133       0.51030079       1.11512368
C       -3.04503554       1.29480713       1.91800468
C       -2.48389881       2.44871409       2.46089288
O       -3.13507806       3.33600303       3.26426514
C       -2.24332515       4.31491562       3.57706614
C       -1.03622473       4.05630897       2.98054584
Br       0.51724524       5.09389354       3.09571199
C       -1.16727249       2.85142207       2.25162590
C       -0.34080010       2.04924268       1.44060936
H       -2.60889168      -0.40002990       0.67140642
H       -4.07622222       1.02442434       2.11101871
H       -2.61640042       5.10217719       4.21694080
H        0.69179882       2.33062252       1.25426864
C        0.88305812      -0.88305812       0.88305812
C        2.25514691      -0.62881799       0.95081089
C        3.09222667      -1.41687965       1.74874104
C        2.48481153      -2.45120068       2.45749358
O        3.12964045      -3.32200740       3.28369838
C        2.18744596      -4.17045023       3.77741072
C        0.95475221      -3.84570677       3.27262055
Br      -0.66856253      -4.70255828       3.63836455
C        1.12184996      -2.73397018       2.41450033
C        0.29470328      -1.93011389       1.60583497
H        2.69002697       0.19017342       0.38041466
H        4.15850237      -1.23728145       1.81588146
H        2.54936295      -4.92881523       4.45734023
H       -0.77330950      -2.11983481       1.54656703
