189
Properties=species:S:1:pos:R:3 pbc="F F F"
C        0.00000000       0.00000000       0.00000000
C        0.55879699       9.01777640      -9.92417815
C        0.22477461       8.28687074      -8.84873255
C        1.14670169       7.89158854      -7.77539066
C        2.25071496       8.66469884      -7.40098524
C        3.08209081       8.26542856      -6.34698152
C        2.83406404       7.07976463      -5.63815695
C        1.70341000       6.32865181      -5.99036037
C        0.87524998       6.72750338      -7.04785304
C        3.74647981       6.70941234      -4.48426194
N        3.87820859       5.26822110      -4.26540794
N        3.03462628       4.70775254      -3.37813727
C        3.32510910       3.39674991      -3.37136000
C        2.51267844       2.50112366      -2.52195554
C        2.91042429       1.20643164      -2.16282308
C        2.09680125       0.39701213      -1.35562147
C        0.88118714       0.88118714      -0.88118714
C        0.47049029       2.16817778      -1.20270236
C        1.28066598       2.96643981      -2.01683058
C        4.42193020       3.15348323      -4.25643577
Cl       5.12704783       1.64785448      -4.64415549
C        4.80498502       4.38579755      -4.77887870
C        5.93022255       4.73502623      -5.66130838
C        5.76090764       5.53671074      -6.79843360
C        6.85119625       5.88699069      -7.60352314
C        8.11863274       5.39903063      -7.30312888
C        8.30676993       4.57132888      -6.20101003
C        7.21904464       4.25257752      -5.37995492
H       -0.18875140       9.26075774     -10.67336512
H        1.56635636       9.37774984     -10.10124145
H       -0.80144591       7.94172418      -8.75298556
H        2.47019263       9.59875828      -7.91228948
H        3.92716642       8.89857451      -6.08289310
H        1.44084081       5.42221693      -5.44711316
H        0.01152849       6.11275347      -7.29488353
H        3.35182863       7.14832854      -3.55995673
H        4.75624797       7.10658759      -4.63000146
H        3.86105508       0.79242117      -2.47851779
H        2.42796044      -0.60641105      -1.10079592
H       -0.46903794       2.56596044      -0.82937987
H        0.93872511       3.97387760      -2.25208878
H        4.77854626       5.89027873      -7.09286487
H        6.69404493       6.52821539      -8.46644541
H        9.29004513       4.16988950      -5.96871705
H        7.39535604       3.61486882      -4.51560616
C        9.23783853       5.74504176      -8.14053840
C       10.17517338       6.03482608      -8.84186887
Br      11.69076455       6.50338281      -9.97586094
C       -0.68512407      -8.25921816     -10.55640932
C       -0.32053181      -7.58667601      -9.45317007
C       -1.17897773      -7.35000026      -8.28470290
C       -2.18731068      -8.23663816      -7.89245021
C       -2.95764459      -7.98715230      -6.74970401
C       -2.74272074      -6.84203932      -5.96722556
C       -1.70444168      -5.97676308      -6.34121741
C       -0.93761994      -6.22583214      -7.48715431
C       -3.58326168      -6.63543710      -4.72145531
N       -3.80498938      -5.23041915      -4.37642909
N       -2.93649435      -4.67149213      -3.51252960
C       -3.32348093      -3.39281887      -3.37691920
C       -2.51430668      -2.50049566      -2.52095529
C       -2.97791187      -1.27335325      -2.02841389
C       -2.16449582      -0.46342351      -1.22151552
C       -0.88118714      -0.88118714      -0.88118714
C       -0.40222247      -2.10245561      -1.33669235
C       -1.21361900      -2.90049336      -2.14982400
C       -4.50407289      -3.17381509      -4.15396121
Cl      -5.34999197      -1.70580609      -4.36325973
C       -4.83446337      -4.39036124      -4.74483666
C       -5.99840329      -4.76270289      -5.56545099
C       -5.86247012      -5.45986491      -6.77371695
C       -6.98528764      -5.83623142      -7.52019102
C       -8.25716103      -5.47735996      -7.08627126
C       -8.41661810      -4.75323796      -5.90925278
C       -7.29266794      -4.40961787      -5.14929128
H        0.01498808      -8.38320704     -11.37715251
H       -1.67374968      -8.68582366     -10.68577430
H        0.68112242      -7.16715134      -9.40723491
H       -2.37671751      -9.14426871      -8.46025417
H       -3.72819818      -8.70524593      -6.47518992
H       -1.46752071      -5.09547865      -5.74717155
H       -0.14575693      -5.52578548      -7.74762307
H       -3.08253880      -7.10913088      -3.86844422
H       -4.56872137      -7.10155628      -4.82255937
H       -3.97963465      -0.91566805      -2.23669134
H       -2.54847463       0.48755163      -0.86142231
H        0.59194499      -2.44926476      -1.06898260
H       -0.81702595      -3.85605399      -2.49161156
H       -4.88355413      -5.70888669      -7.16924904
H       -6.85116847      -6.39559557      -8.44194169
H       -9.40512214      -4.45203022      -5.57149932
H       -7.44544705      -3.85541888      -4.22496509
C       -9.41167574      -5.84940652      -7.86233643
C      -10.37858180      -6.16099551      -8.51229101
Br     -11.94198714      -6.66480856      -9.56321259
C      -12.35516104       4.55821933       2.58737118
C      -11.28499205       3.81763388       2.25775196
C      -10.04525719       3.72759405       3.04082965
C      -10.01516494       3.86907331       4.43216078
C       -8.81409328       3.73959427       5.14081334
C       -7.60769258       3.46671717       4.47757588
C       -7.64908465       3.28577739       3.08756013
C       -8.85090283       3.41986864       2.37983493
C       -6.34044039       3.30431483       5.29539887
N       -5.11997217       3.70055149       4.59131396
N       -4.45518088       2.73195193       3.93338328
C       -3.40501408       3.33501263       3.35319231
C       -2.50991431       2.52321290       2.50263043
C       -1.22307466       2.93036879       2.12623556
C       -0.41638270       2.12001435       1.31303780
C       -0.88118714       0.88118714       0.88118714
C       -2.14396118       0.44146984       1.25593941
C       -2.94789194       1.25843877       2.05760565
C       -3.40238639       4.72020834       3.70925446
Cl      -2.31304719       5.92419495       3.18181565
C       -4.48534356       4.92427799       4.56003972
C       -4.90121961       6.12938375       5.29595381
C       -6.22596364       6.58688779       5.28320055
C       -6.60734463       7.71444696       6.01991849
C       -5.65404027       8.42422871       6.74252327
C       -4.32540556       8.01206275       6.74164052
C       -3.95637602       6.86408558       6.03111550
H      -13.23093179       4.56898693       1.94545274
H      -12.39097313       5.17731340       3.47706112
H      -11.31526600       3.24130612       1.33669171
H      -10.92912816       4.06446827       4.98764396
H       -8.83465231       3.85056396       6.22341776
H       -6.75003230       3.03205520       2.52808340
H       -8.83950848       3.27919048       1.30046652
H       -6.22963470       2.25089329       5.57958591
H       -6.38354340       3.88977335       6.21952027
H       -0.80048429       3.87071768       2.46079206
H        0.57428180       2.46646319       1.03016392
H       -2.51627072      -0.52858461       0.93861625
H       -3.93318577       0.88996122       2.34154450
H       -6.98425008       6.08952894       4.68791083
H       -7.64591112       8.03345820       6.00933641
H       -3.56970343       8.57080002       7.28814823
H       -2.91317774       6.55447035       6.05818294
C       -6.04234161       9.59411382       7.48696325
C       -6.36754399      10.57389261       8.11043173
Br      -6.89336872      12.15811204       9.11852753
C       12.26994446      -4.92460839       2.30619869
C       11.21575912      -4.15660533       1.98801344
C       10.01060156      -3.99133057       2.81174876
C       10.02797500      -4.08081920       4.20760484
C        8.86005098      -3.88033041       4.95411950
C        7.64018555      -3.58639048       4.32540960
C        7.63558284      -3.45787480       2.92896454
C        8.80411945      -3.66296389       2.18352306
C        6.41149625      -3.34654801       5.18210983
N        5.15167661      -3.72175564       4.53840537
N        4.49820627      -2.75332486       3.86898496
C        3.40560460      -3.33699591       3.35061849
C        2.50915487      -2.52345978       2.50314299
C        1.19504039      -2.89513231       2.18950630
C        0.38823593      -2.08501980       1.37617911
C        0.88118714      -0.88118714       0.88118714
C        2.17239266      -0.47614848       1.19282929
C        2.97576313      -1.29318190       1.99499134
C        3.36600020      -4.70721958       3.75862941
Cl       2.21439369      -5.88758766       3.31707644
C        4.47218450      -4.92095354       4.57652323
C        4.87141815      -6.11331930       5.34181972
C        6.17719729      -6.62071667       5.29813802
C        6.54483725      -7.73430991       6.06256291
C        5.59430879      -8.38078021       6.84570325
C        4.28247829      -7.91900793       6.87762262
C        3.92890594      -6.78453786       6.13813328
H       13.11985980      -4.99182706       1.63368460
H       12.31678543      -5.51180902       3.21675320
H       11.23217059      -3.61575154       1.04534169
H       10.95455518      -4.29025649       4.73642871
H        8.91745062      -3.95250630       6.03867711
H        6.72586577      -3.19089950       2.39340564
H        8.75707583      -3.56134895       1.10074070
H        6.34993730      -2.28004343       5.43013318
H        6.46814386      -3.89918128       6.12551188
H        0.75143619      -3.80603557       2.57452227
H       -0.62436713      -2.40385565       1.14285679
H        2.56751810       0.46694688       0.82573114
H        3.98384523      -0.95210597       2.22874029
H        6.93005314      -6.17437172       4.65726500
H        7.56995772      -8.09251219       6.02623582
H        3.52812501      -8.42852055       7.47200611
H        2.89944090      -6.43494339       6.19144673
C        5.96761028      -9.53662143       7.61918698
C        6.28025028     -10.50463845       8.26697960
Br       6.78576272     -12.06984010       9.31440547
