181
Properties=species:S:1:pos:R:3 pbc="F F F"
C        0.00000000       0.00000000       0.00000000
C        0.86713656       0.86713656      -0.86713656
C        0.57103170       1.26455847      -2.14939353
C        1.67216985       2.04723541      -2.58687319
C        2.57961810       2.08278613      -1.54166489
O        2.06848083       1.36945142      -0.48672884
C        3.88253861       2.70499935      -1.35489967
O        4.30758086       2.95782189      -0.23351483
N        4.56302530       2.98284320      -2.54015646
C        5.85330103       3.56605067      -2.68400382
C        6.70437981       3.71964113      -1.57606695
C        7.97519755       4.28062508      -1.70303009
C        8.41799978       4.72120901      -2.93876956
C        7.58710875       4.59128810      -4.05156794
C        6.30885382       3.99388756      -3.96686848
C        5.47929616       3.95077040      -5.20740329
C        4.20567357       4.57055018      -5.17964605
C        3.37529925       4.61281767      -6.30021799
C        3.81848784       4.08242604      -7.49954095
C        5.07221748       3.47737421      -7.56510543
C        5.90183700       3.36663172      -6.43389195
N        7.15805712       2.70981559      -6.54747615
C        7.51074247       1.79139990      -7.52915140
O        6.72055672       1.29218100      -8.32900025
C        8.90616116       1.39765365      -7.52164099
C        9.52763413       0.33009357      -8.14422442
C       10.91185747       0.45352990      -7.88594027
C       11.05675135       1.59479561      -7.13036288
O        9.84308970       2.16211767      -6.87838616
H       -0.32623496       1.02173472      -2.70118998
H        1.77187922       2.53750618      -3.54509170
H        4.08865185       2.74952368      -3.40110541
H        6.41832045       3.39384324      -0.58051777
H        8.60838662       4.37904089      -0.82410333
H        9.40230308       5.16984334      -3.03745140
H        7.94465345       4.98947181      -5.00055243
H        3.85246871       5.05000124      -4.26697240
H        2.39828994       5.08596370      -6.24381220
H        3.20394799       4.14633790      -8.39410832
H        5.39530783       3.12077666      -8.54068439
H        7.82668816       2.81346692      -5.79411200
H        9.02495727      -0.43183505      -8.72614644
H       11.70293184      -0.19920511      -8.22943631
C       12.31676718       2.12834396      -6.68171351
C       13.37203044       2.57519071      -6.30596967
Br      15.07830188       3.29770411      -5.69842365
C       -0.86713656      -0.86713656      -0.86713656
C       -0.73268917      -2.22595332      -1.02634122
C       -1.74254991      -2.62020467      -1.94352387
C       -2.43793520      -1.47456491      -2.29156900
O       -1.90299324      -0.40835514      -1.61331271
C       -3.56558973      -1.20479501      -3.17205289
O       -4.27250941      -0.21690525      -3.00950292
N       -3.75582643      -2.15787302      -4.17232550
C       -4.75221228      -2.16253629      -5.18860696
C       -5.54437163      -1.02669562      -5.42902065
C       -6.51818136      -1.01299795      -6.42767341
C       -6.73788330      -2.14307877      -7.19701628
C       -5.97320852      -3.28723668      -6.96951960
C       -4.95294724      -3.32472111      -5.99194152
C       -4.22852781      -4.61504861      -5.79389343
C       -4.25067862      -5.20096011      -4.50423107
C       -3.63349027      -6.42249536      -4.23234928
C       -3.02079886      -7.12176132      -5.25789465
C       -2.99270819      -6.58026515      -6.54172378
C       -3.55312509      -5.32155928      -6.82767629
N       -3.46773764      -4.79976802      -8.14784320
C       -2.54178918      -5.17589171      -9.11361287
O       -1.56062317      -5.88529371      -8.89582108
C       -2.77571217      -4.61830548     -10.43143816
C       -1.93096329      -4.54649705     -11.52449177
C       -2.67909614      -3.98696513     -12.58526638
C       -3.93991095      -3.75987967     -12.08211922
O       -4.00372134      -4.11290431     -10.76696789
H        0.00077546      -2.85532521      -0.54213999
H       -1.94176250      -3.62554717      -2.28716742
H       -3.11820050      -2.94150680      -4.17957364
H       -5.42172213      -0.10853614      -4.86242320
H       -7.10901708      -0.11401295      -6.58850080
H       -7.50430697      -2.13857442      -7.96671644
H       -6.20105274      -4.17479597      -7.55882898
H       -4.77618935      -4.70443969      -3.68881331
H       -3.65828590      -6.84053701      -3.22924294
H       -2.57415011      -8.09584068      -5.07440342
H       -2.54389779      -7.19027759      -7.32259351
H       -4.04266168      -4.00202492      -8.38958048
H       -0.90075319      -4.87858321     -11.53993226
H       -2.34193170      -3.79613557     -13.59509576
C       -5.04602576      -3.23834391     -12.84245498
C       -5.97239691      -2.80155772     -13.47923619
Br      -7.47026072      -2.09531138     -14.50885754
C       -0.86713656       0.86713656       0.86713656
C       -2.06912828       1.42081812       0.49503731
C       -2.52197131       2.17358579       1.61072136
C       -1.56654015       2.03435922       2.60316975
O       -0.56441871       1.21820550       2.14203688
C       -1.43762910       2.54394248       3.96086606
O       -0.74222557       1.96746860       4.78922341
N       -2.16965361       3.70413467       4.21223668
C       -2.23257623       4.44488567       5.42589363
C       -1.33607411       4.18685694       6.47715685
C       -1.37931366       4.91083318       7.66870588
C       -2.33464552       5.89731203       7.84602080
C       -3.24378368       6.16387492       6.82230619
C       -3.20548451       5.47614273       5.58798262
C       -4.25642418       5.80212760       4.57891806
C       -5.08692171       4.75106504       4.11788304
C       -6.11882768       4.96594663       3.20356060
C       -6.38557876       6.25107716       2.76379891
C       -5.59629993       7.31022628       3.20817091
C       -4.51086055       7.11037119       4.08112892
N       -3.71643888       8.22125238       4.47765761
C       -3.60654332       9.42789648       3.79685397
O       -4.04638163       9.62954272       2.66581362
C       -2.86739315      10.45849964       4.49956301
C       -2.33307570      11.64318334       4.02569307
C       -1.78920491      12.32259707       5.13952566
C       -2.03257079      11.51912938       6.23020966
O       -2.66182463      10.37088007       5.85088883
H       -2.55937450       1.29781978      -0.46050454
H       -3.44566260       2.73107380       1.67774069
H       -2.72600214       4.06380840       3.44947041
H       -0.56285418       3.42823054       6.40159674
H       -0.66605367       4.68673048       8.45874669
H       -2.37803272       6.45359343       8.77797167
H       -4.01257556       6.91285589       7.00924623
H       -4.94115618       3.73750658       4.49077959
H       -6.73157750       4.13638680       2.86010154
H       -7.21391668       6.44392390       2.08655362
H       -5.87699407       8.30642395       2.87335085
H       -3.07636174       8.10435761       5.25354773
H       -2.35601275      11.96948140       2.99377450
H       -1.30152000      13.28799731       5.14364572
C       -1.68746138      11.85110712       7.58825615
C       -1.39843226      12.12913847       8.72562009
Br      -0.93109661      12.57869165      10.56464139
C        0.86713656      -0.86713656       0.86713656
C        2.22448050      -1.03367685       0.72682635
C        2.61920015      -1.94783465       1.73924364
C        1.47530429      -2.28683543       2.44192940
O        0.40980855      -1.60597023       1.90888231
C        1.20677745      -3.16045383       3.57520635
O        0.22318292      -2.98959105       4.28614362
N        2.15587348      -4.16445800       3.76569347
C        2.16046326      -5.17586247       4.76702979
C        1.02736875      -5.40680905       5.56591009
C        1.01357328      -6.40060544       6.54467400
C        2.14094272      -7.17441161       6.76262402
C        3.28242620      -6.95628814       5.99125046
C        3.31967633      -5.98391019       4.96602334
C        4.60737974      -5.79575637       4.23433374
C        5.19969657      -4.50889770       4.24727552
C        6.41949795      -4.24604899       3.62278796
C        7.11071620      -5.27800612       3.01173251
C        6.56281296      -6.55927916       2.99260500
C        5.30549386      -6.83629327       3.56057353
N        4.77683552      -8.15428046       3.48423288
C        5.14367141      -9.12640718       2.56121517
O        5.84929743      -8.91690991       1.57553062
C        4.58080053     -10.44031437       2.80434090
C        4.49949155     -11.53712207       1.96533850
C        3.93846128     -12.59145909       2.72140727
C        3.72004295     -12.08103805       3.98082882
O        4.07980810     -10.76734203       4.03644340
H        2.85259992      -0.55617098      -0.01208116
H        3.62381654      -2.29543863       1.93522192
H        2.93631759      -4.17867926       3.12428409
H        0.11140071      -4.83631060       5.44497015
H        0.11672823      -6.55411741       7.14068520
H        2.13644088      -7.94032088       7.53283606
H        4.16820092      -7.54883277       6.21764399
H        4.70976211      -3.68848666       4.77119358
H        6.84255981      -3.24490106       3.64060497
H        8.08347371      -5.10149458       2.55942592
H        7.16678291      -7.34532575       2.54466021
H        3.98075578      -8.38927607       4.06423523
H        4.82642840     -11.55923609       0.93360416
H        3.74103717     -13.60197563       2.39015025
C        3.20023831     -12.83337864       5.09320771
C        2.76490192     -13.46346388       6.02482502
Br       2.06099980     -14.48225842       7.53117142
