197
Properties=species:S:1:pos:R:3 pbc="F F F"
C        0.00000000       0.00000000       0.00000000
C        0.88112236       0.88112236      -0.88112236
C        1.54841391       1.96942778      -0.32201882
C        2.34473730       2.77946701      -1.13088659
C        2.46418596       2.50307401      -2.49394103
C        1.79380185       1.41097538      -3.06000498
C        1.00858713       0.59081784      -2.24028763
C        1.96594514       1.09730272      -4.47511066
N        0.98112672       1.15926528      -5.43506085
N        1.39218378       0.73413856      -6.65165959
C        2.70649289       0.48704692      -6.51153417
C        3.49804987       0.05466981      -7.67010633
C        4.56630247      -0.84519678      -7.54284907
C        5.31958564      -1.22683383      -8.65717579
C        5.00136074      -0.72915553      -9.91852127
C        3.92540754       0.14453319     -10.06027001
C        3.17714949       0.53572584      -8.94957616
C        3.10775165       0.72653167      -5.16550041
Cl       4.67724085       0.59312741      -4.51279412
C       -0.41150706       1.58857880      -5.28268129
C       -0.59026929       3.08434314      -5.46015707
C       -0.24337338       3.66250858      -6.70051391
C       -0.42399974       5.02762628      -6.95478259
C       -0.02530748       5.61326079      -8.27720204
C       -0.93558811       5.83906942      -5.94341145
C       -1.29902068       5.28625308      -4.71544925
C       -1.14524308       3.91252473      -4.46188522
C       -1.61047177       3.38047639      -3.13482737
H        1.45881668       2.19183672       0.73906011
H        2.87831204       3.62372202      -0.69950274
H        3.09210817       3.14235424      -3.11079126
H        0.50376197      -0.27688322      -2.65778816
H        4.82359464      -1.27803233      -6.57888181
H        6.15055818      -1.91718732      -8.53896536
H        5.58899236      -1.03214789     -10.78099065
H        2.33872176       1.21840701      -9.07482717
H       -0.76302619       1.22863249      -4.31405605
H       -1.00406970       1.05968442      -6.04022122
H        0.16677320       3.03233412      -7.49064841
H       -0.21344812       4.90273489      -9.08825952
H        1.03760876       5.87072490      -8.26788040
H       -0.60521977       6.51539097      -8.49665763
H       -1.06848001       6.90600173      -6.10719461
H       -1.71632343       5.94248619      -3.95406818
H       -0.78562284       2.90484709      -2.60109883
H       -2.42335901       2.66053284      -3.27853368
H       -1.99055895       4.18002855      -2.48836608
C        3.58345510       0.64749404     -11.36552819
C        3.29706993       1.06872376     -12.45868191
Br       2.83400934       1.74981658     -14.22621903
C       -0.88112236      -0.88112236      -0.88112236
C       -1.56041599      -0.31902262      -1.96042190
C       -2.37325683      -1.12376696      -2.75806711
C       -2.50923210      -2.48269569      -2.46927321
C       -1.82928707      -3.05114643      -1.38434870
C       -1.00121054      -2.24212913      -0.59635293
C       -1.93468472      -4.48291453      -1.12075927
N       -2.51377248      -5.05245038      -0.00922999
N       -2.40021634      -6.40001382       0.02224823
C       -1.82608487      -6.73131968      -1.14766943
C       -1.60030559      -8.14386018      -1.47866023
C       -0.48412536      -8.56192586      -2.21790355
C       -0.30042573      -9.91016145      -2.53934042
C       -1.22075183     -10.86231442      -2.10766023
C       -2.31898814     -10.46129738      -1.34992523
C       -2.51146826      -9.11575716      -1.03522607
C       -1.54123870      -5.55656551      -1.90197952
Cl      -0.85580275      -5.46677989      -3.46057974
C       -3.18435350      -4.38500881       1.10960928
C       -4.66113656      -4.14919341       0.85609906
C       -5.49602209      -5.26772828       0.64410125
C       -6.87619620      -5.13235793       0.45014500
C       -7.73124727      -6.34085173       0.20694365
C       -7.43265842      -3.85435809       0.44012375
C       -6.62879717      -2.73634474       0.66246025
C       -5.24707771      -2.86610297       0.88401382
C       -4.45541516      -1.62053624       1.17111941
H       -1.46047718       0.73947464      -2.19059076
H       -2.89726953      -0.69477018      -3.60949708
H       -3.14424022      -3.09777699      -3.10323645
H       -0.44465835      -2.67254281       0.23253426
H        0.27093647      -7.85068317      -2.54469741
H        0.56483660     -10.21539996      -3.12177286
H       -1.07048218     -11.90899385      -2.35835909
H       -3.37352777      -8.81649767      -0.44193051
H       -2.63548963      -3.46564881       1.32147609
H       -3.06530373      -5.02434074       1.99380854
H       -5.06235007      -6.26851409       0.64110843
H       -7.36771605      -7.19569381       0.78586356
H       -7.72110549      -6.59940884      -0.85569973
H       -8.76527829      -6.15740168       0.51585114
H       -8.49871537      -3.71883505       0.27283408
H       -7.09701153      -1.75390272       0.67068330
H       -3.66218272      -1.49074636       0.43260601
H       -4.02219240      -1.66946292       2.17594781
H       -5.08268133      -0.72259874       1.12744439
C       -3.26315000     -11.44548932      -0.88783801
C       -4.05388556     -12.26975007      -0.50083997
Br      -5.33243808     -13.60250999       0.12490313
C       -0.88112236       0.88112236       0.88112236
C       -2.26298149       0.87666810       0.70021091
C       -3.06545328       1.69030826       1.49932936
C       -2.48351468       2.50894404       2.46874229
C       -1.09475936       2.51740632       2.65261652
C       -0.29471108       1.68617512       1.85880640
C       -0.49854032       3.33610709       3.70371111
N        0.33923915       4.41018932       3.50450269
N        0.81543203       4.93810227       4.65531170
C        0.19243871       4.26137568       5.63613701
C        0.43457245       4.61759433       7.03980413
C        0.44582876       3.65241934       8.05736418
C        0.65781982       4.01749763       9.39024980
C        0.88223578       5.35165785       9.72130441
C        0.89971890       6.31499392       8.71493572
C        0.67886544       5.95652701       7.38478992
C       -0.65818850       3.26414292       5.07745231
Cl      -1.68123910       2.18728952       5.91463376
C        0.77611329       4.99967295       2.23619338
C       -0.17927056       6.05747597       1.71748439
C       -0.40730911       7.20557541       2.50676460
C       -1.23899823       8.24560608       2.07380483
C       -1.47585702       9.44240995       2.94688838
C       -1.87842199       8.12765365       0.84081712
C       -1.65568274       7.00889799       0.03810092
C       -0.80177242       5.97316388       0.45423056
C       -0.56787615       4.82566688      -0.48871104
H       -2.72337233       0.24249138      -0.05427041
H       -4.14589742       1.68340591       1.37223347
H       -3.12353102       3.13518177       3.08654088
H        0.78204693       1.65973984       2.00697399
H        0.30534942       2.59778166       7.83201187
H        0.65310975       3.25794004      10.16750593
H        1.04932884       5.62830791      10.75885604
H        0.69592301       6.71932775       6.60855121
H        0.93255429       4.18246788       1.52974877
H        1.76169235       5.45215248       2.40537580
H        0.08336187       7.29649290       3.47662470
H       -0.57159111       9.69760908       3.50834610
H       -2.28721820       9.23783061       3.65116525
H       -1.74176050      10.31839002       2.34667830
H       -2.54464573       8.91171251       0.48835809
H       -2.15228168       6.95688985      -0.92894058
H       -0.86496412       3.88228886      -0.02692991
H        0.48775935       4.78095134      -0.77748448
H       -1.15556353       4.93039479      -1.40812265
C        1.14827218       7.69274877       9.05200074
C        1.35643555       8.84661846       9.33429269
Br       1.69301812      10.71232816       9.79073490
C        0.88112236      -0.88112236       0.88112236
C        0.46737690      -1.19907474       2.17340887
C        1.27877315      -1.99571374       2.98060401
C        2.50135430      -2.46378600       2.49606071
C        2.92148144      -2.14510748       1.19819328
C        2.09542940      -1.35852185       0.38574134
C        4.17609483      -2.68199458       0.68026912
N        5.28750765      -1.94125183       0.34669337
N        6.28394207      -2.68292818      -0.18888832
C        5.85708457      -3.95542828      -0.10743888
C        6.72753817      -5.04999084      -0.55470301
C        6.21204789      -6.20763969      -1.15573282
C        7.05833916      -7.24650803      -1.55491960
C        8.43506111      -7.13272653      -1.37706116
C        8.95999323      -5.97566133      -0.80544382
C        8.11840275      -4.94068900      -0.39664026
C        4.54846362      -3.99663668       0.45468343
Cl       3.60977747      -5.37883762       0.79454729
C        5.48891334      -0.49561244       0.47522726
C        6.02449318      -0.09353549       1.83620224
C        7.27881546      -0.59768844       2.24314521
C        7.85918907      -0.23455040       3.46466966
C        9.18442556      -0.80525543       3.87547435
C        7.16359665       0.62753646       4.31083257
C        5.92978480       1.14935143       3.92224827
C        5.35302090       0.81021998       2.68636595
C        4.04730684       1.45538382       2.31290898
H       -0.48334708      -0.83663637       2.55830401
H        0.95717463      -2.25814033       3.98622183
H        3.12120052      -3.08718835       3.13686479
H        2.39330783      -1.12478110      -0.63342202
H        5.14566333      -6.31758433      -1.33880354
H        6.64108457      -8.14099650      -2.00974485
H        9.08754768      -7.94257846      -1.69229102
H        8.54204014      -4.04201422       0.04790158
H        4.54435349      -0.00812694       0.22718192
H        6.20388049      -0.19234063      -0.30038520
H        7.82119454      -1.28054142       1.58801977
H        9.83709098      -0.93415872       3.00629659
H        9.04072782      -1.77487153       4.36061471
H        9.70047122      -0.13554960       4.57080801
H        7.58222543       0.91120742       5.27369833
H        5.42204970       1.83736384       4.59554509
H        3.28094927       0.69815096       2.13752475
H        4.17150586       2.07194477       1.41614642
H        3.67486443       2.10804739       3.11101864
C       10.38424769      -5.84797856      -0.63574892
C       11.57706079      -5.74104424      -0.49362943
Br      13.50573870      -5.56814049      -0.26383425
