181
Properties=species:S:1:pos:R:3 pbc="F F F"
C        0.00000000       0.00000000       0.00000000
C       12.61493535       3.78134266       0.38109954
O       11.34128931       3.84589879       1.01425283
C       10.45892036       2.85880092       0.66993387
C       10.80682715       1.60128652       0.18042445
C        9.81374435       0.67066769      -0.13497934
C        8.45805844       0.98862606       0.02711896
C        8.11735458       2.24274835       0.55046380
C        9.11285792       3.16718707       0.87217962
C        7.39657563      -0.02589729      -0.30958330
N        6.42788473       0.46046130      -1.29100225
N        5.15493342       0.61876534      -0.87203872
C        4.48803048       1.08029286      -1.94042871
C        3.06026968       1.39169187      -1.82325085
C        2.49679638       2.50297011      -2.46667657
C        1.13519872       2.78991046      -2.32970890
C        0.32537669       1.97747468      -1.53834809
C        0.88256011       0.88256011      -0.88256011
C        2.23816834       0.58721289      -1.01947926
C        5.35849786       1.16328215      -3.06388594
Cl       4.92737088       1.61010024      -4.65110714
C        6.61445168       0.76339777      -2.62456160
C        7.88404228       0.69636907      -3.35615874
C        8.33538032       1.81369421      -4.07675257
C        9.52174513       1.76422195      -4.81268428
C       10.28780322       0.60178885      -4.81934725
C        9.85154184      -0.50982977      -4.10194717
Br      10.89924775      -2.08265803      -4.08792019
C        8.64964747      -0.47545611      -3.38979281
H       13.15411243       4.70219237       0.62174808
H       12.51225451       3.72871918      -0.70943265
H       13.20479856       2.94355046       0.76179695
H       11.84336024       1.30817694       0.04928158
H       10.11302205      -0.30642255      -0.50967224
H        7.07355376       2.51031674       0.71196768
H        8.83651860       4.13926981       1.27443536
H        6.85140589      -0.29084588       0.60566840
H        7.81694566      -0.95639571      -0.70216136
H        3.10919497       3.17299279      -3.06537652
H        0.70970752       3.65374375      -2.83560740
H       -0.73069737       2.21034787      -1.43260653
H        2.66391488      -0.26604078      -0.49649391
H        7.76048663       2.73687313      -4.07863553
H        9.84652207       2.63474439      -5.37969354
H       11.21474203       0.57019046      -5.38921451
H        8.31206151      -1.36879154      -2.87707394
C       -9.87257086      -8.42139322       2.27878561
O       -8.48755630      -8.14571271       2.46033373
C       -8.12030130      -6.83660926       2.30912316
C       -8.96272811      -5.73879909       2.47383798
C       -8.47154965      -4.44318096       2.29533924
C       -7.13226649      -4.22843280       1.94113375
C       -6.28365932      -5.33536549       1.80938568
C       -6.77614330      -6.62825063       1.99652856
C       -6.61249691      -2.82633383       1.75856910
N       -6.01994086      -2.60042810       0.44102068
N       -4.69488739      -2.34870305       0.39785297
C       -4.40810361      -2.19697946      -0.90366898
C       -3.02525824      -1.93563125      -1.31432292
C       -2.48316481      -2.51043146      -2.47284679
C       -1.15713689      -2.25929136      -2.83838983
C       -0.35535046      -1.44213771      -2.04371128
C       -0.88256011      -0.88256011      -0.88256011
C       -2.20561490      -1.12396989      -0.51527570
C       -5.59392974      -2.30819228      -1.68354392
Cl      -5.72357955      -2.09542169      -3.36957702
C       -6.62964293      -2.57580046      -0.79696766
C       -8.05082219      -2.82082548      -1.06492243
C       -8.42710281      -3.78234000      -2.01638429
C       -9.77226518      -4.00856034      -2.31782584
C      -10.76371172      -3.29176723      -1.65346036
C      -10.40035338      -2.34036163      -0.70294423
Br     -11.74249902      -1.38123650       0.21922562
C       -9.05513333      -2.08825672      -0.42059411
H       -9.99824520      -9.50801349       2.27170198
H      -10.22946322      -8.03677877       1.31583566
H      -10.46731921      -8.02501540       3.10578254
H      -10.00323134      -5.85719854       2.75817428
H       -9.14924901      -3.60320897       2.43618623
H       -5.23171888      -5.19998834       1.55980440
H       -6.10898358      -7.48045749       1.88808802
H       -5.84403448      -2.62781118       2.51695404
H       -7.39069780      -2.07033969       1.89832619
H       -3.07439615      -3.17707441      -3.09609372
H       -0.74899608      -2.70949826      -3.74056433
H        0.67575729      -1.25625882      -2.33175550
H       -2.60431392      -0.68780219       0.39774809
H       -7.67191760      -4.36292603      -2.54115165
H      -10.04409877      -4.74550817      -3.07135307
H      -11.81075982      -3.47610548      -1.88728170
H       -8.79983465      -1.31141058       0.29090133
C        1.55585915      11.68284550       5.88819211
O        1.97743239      10.32430175       5.82606592
C        1.68198498       9.66591673       4.66385566
C        1.46933469      10.27057333       3.42645058
C        1.17641292       9.49116987       2.30463442
C        1.08382958       8.09612442       2.40727069
C        1.33108019       7.49322054       3.64749878
C        1.63155701       8.27480443       4.76461794
C        0.77451858       7.26583628       1.18894393
N       -0.40522695       6.41823859       1.35588274
N       -0.20827996       5.08324618       1.35421134
C       -1.42483578       4.54820151       1.53571476
C       -1.57053077       3.09150214       1.61317950
C       -2.46848972       2.49077472       2.50717861
C       -2.58114448       1.09873980       2.57493380
C       -1.78887155       0.29243900       1.75988890
C       -0.88256011       0.88256011       0.88256011
C       -0.76929498       2.26996719       0.80559832
C       -2.40784557       5.57584863       1.60197174
Cl      -4.09343141       5.36106027       1.73408658
C       -1.72956714       6.78318367       1.48966025
C       -2.24725967       8.15489009       1.53442034
C       -3.07440390       8.55555087       2.59587232
C       -3.61137025       9.84433142       2.64294968
C       -3.30898305      10.76058808       1.63936818
C       -2.48373832      10.37433909       0.58558184
Br      -2.05051274      11.62106541      -0.76706825
C       -1.96962791       9.07665736       0.51769890
H        1.71180368      12.03397105       6.91238935
H        0.48700353      11.77601996       5.66138990
H        2.15501013      12.31438505       5.22717714
H        1.54161093      11.34567279       3.29819374
H        1.02089252       9.98824689       1.34891736
H        1.29169103       6.40957047       3.75402339
H        1.81811913       7.79611916       5.72335302
H        1.63270502       6.61706338       0.97053325
H        0.61118260       7.87723374       0.29666017
H       -3.07734516       3.09249105       3.17772808
H       -3.28294114       0.64495049       3.27116705
H       -1.87848453      -0.78865404       1.82242654
H       -0.05260778       2.71956372       0.12219651
H       -3.31669262       7.86174640       3.39755626
H       -4.26514624      10.13125573       3.46455804
H       -3.72472431      11.76565037       1.68377232
H       -1.36674131       8.78979543      -0.33619283
C        8.06263452       2.22666403      10.17920797
O        7.82166154       2.44115765       8.79243139
C        6.52872173       2.26328969       8.38235537
C        5.40272924       2.37131902       9.19627900
C        4.12763732       2.17024555       8.66199960
C        3.96210115       1.84984101       7.30730540
C        5.09640952       1.77519589       6.48842550
C        6.36847713       1.98478881       7.02417704
C        2.58156234       1.64248838       6.74118769
N        2.41193266       0.33711917       6.10453479
N        2.19982690       0.32600154       4.77191212
C        2.09504331      -0.97027927       4.44342947
C        1.88587260      -1.34713434       3.04220546
C        2.51010251      -2.47207106       2.48426949
C        2.30815994      -2.80524328       1.14141486
C        1.49122999      -2.01100082       0.33896864
C        0.88256011      -0.88256011       0.88256011
C        1.07481461      -0.54783989       2.22220599
C        2.19514621      -1.78142029       5.60909944
Cl       2.02877726      -3.47597798       5.68382302
C        2.40645985      -0.91858465       6.67736655
C        2.61832281      -1.22136467       8.09688262
C        3.59637839      -2.15549693       8.47395177
C        3.79263203      -2.49002415       9.81599518
C        3.02824114      -1.87622234      10.80447584
C        2.05994206      -0.94312698      10.44059020
Br       1.03569753      -0.08910318      11.77970919
C        1.83839320      -0.62841797       9.09717299
H        9.14492158       2.24712842      10.33676355
H        7.69660779       1.24289583      10.49669437
H        7.62498158       3.02393041      10.78550090
H        5.48266562       2.62799342      10.24758340
H        3.26470983       2.26672639       9.31828830
H        4.99880935       1.55309719       5.42619066
H        7.24236571       1.92072656       6.37971390
H        2.38285199       2.41728074       5.98932036
H        1.79968163       1.73731906       7.50034874
H        3.17762962      -3.09312086       3.07681380
H        2.79645402      -3.68160273       0.72100193
H        1.34371125      -2.27359991      -0.70505414
H        0.60049801       0.34004327       2.63391327
H        4.21374475      -2.64073828       7.72151226
H        4.54345373      -3.22975773      10.08774855
H        3.18922271      -2.13556016      11.84936413
H        1.04847671       0.06768183       8.83954902
