189
Properties=species:S:1:pos:R:3 pbc="F F F"
C        0.00000000       0.00000000       0.00000000
C       12.61493535       3.78134266       0.38109954
O       11.34128931       3.84589879       1.01425283
C       10.45892036       2.85880092       0.66993387
C       10.80682715       1.60128652       0.18042445
C        9.81374435       0.67066769      -0.13497934
C        8.45805844       0.98862606       0.02711896
C        8.11735458       2.24274835       0.55046380
C        9.11285792       3.16718707       0.87217962
C        7.39657563      -0.02589729      -0.30958330
N        6.42788473       0.46046130      -1.29100225
N        5.15493342       0.61876534      -0.87203872
C        4.48803048       1.08029286      -1.94042871
C        3.06026968       1.39169187      -1.82325085
C        2.49679638       2.50297011      -2.46667657
C        1.13519872       2.78991046      -2.32970890
C        0.32537669       1.97747468      -1.53834809
C        0.88256011       0.88256011      -0.88256011
C        2.23816834       0.58721289      -1.01947926
C        5.35849786       1.16328215      -3.06388594
Cl       4.92737088       1.61010024      -4.65110714
C        6.61445168       0.76339777      -2.62456160
C        7.88404228       0.69636907      -3.35615874
C        8.33538032       1.81369421      -4.07675257
C        9.52174513       1.76422195      -4.81268428
C       10.28780322       0.60178885      -4.81934725
C        9.85154184      -0.50982977      -4.10194717
C        8.64964747      -0.47545611      -3.38979281
H       13.15411243       4.70219237       0.62174808
H       12.51225451       3.72871918      -0.70943265
H       13.20479856       2.94355046       0.76179695
H       11.84336024       1.30817694       0.04928158
H       10.11302205      -0.30642255      -0.50967224
H        7.07355376       2.51031674       0.71196768
H        8.83651860       4.13926981       1.27443536
H        6.85140589      -0.29084588       0.60566840
H        7.81694566      -0.95639571      -0.70216136
H        3.10919497       3.17299279      -3.06537652
H        0.70970752       3.65374375      -2.83560740
H       -0.73069737       2.21034787      -1.43260653
H        2.66391488      -0.26604078      -0.49649391
H        7.76048663       2.73687313      -4.07863553
H        9.84652207       2.63474439      -5.37969354
H       11.21474203       0.57019046      -5.38921451
H        8.31206151      -1.36879154      -2.87707394
C       10.64984166      -1.70824671      -4.09125931
C       11.31841776      -2.71192090      -4.08230822
Br      12.39944876      -4.33477718      -4.06783506
C      -10.50376596      -7.65792257       2.14651007
O       -9.11734324      -7.45420629       2.39861426
C       -8.65963706      -6.18147196       2.19332161
C       -9.43920959      -5.02726180       2.23878218
C       -8.85727800      -3.77706233       2.01494895
C       -7.48839141      -3.66523025       1.73405613
C       -6.70520075      -4.82681000       1.72237162
C       -7.28877431      -6.07366213       1.95457108
C       -6.87099659      -2.31091091       1.50164586
N       -6.18798802      -2.20449357       0.21313332
N       -4.84944470      -2.03529476       0.23900198
C       -4.47670066      -1.98357099      -1.04848040
C       -3.05810880      -1.83147917      -1.38562443
C       -2.48550422      -2.50967546      -2.47126338
C       -1.12684524      -2.36151774      -2.76645510
C       -0.32366341      -1.54487198      -1.97266406
C       -0.88256011      -0.88256011      -0.88256011
C       -2.23774507      -1.02109099      -0.58602442
C       -5.61867852      -2.07315628      -1.89383114
Cl      -5.63405184      -1.96017013      -3.59435629
C       -6.72016461      -2.22202235      -1.06022409
C       -8.13553406      -2.39851508      -1.40252095
C       -8.51462481      -3.39421593      -2.31698635
C       -9.85108217      -3.55861731      -2.68895188
C      -10.83295264      -2.74349854      -2.13248814
C      -10.46731876      -1.75715935      -1.21918114
C       -9.12802994      -1.56818281      -0.86777142
H      -10.69730672      -8.73340622       2.19615623
H      -10.77767316      -7.31446297       1.14172980
H      -11.12039082      -7.17532075       2.90915950
H      -10.50019110      -5.06530870       2.46324420
H       -9.48764190      -2.89102778       2.06239794
H       -5.63381887      -4.77033076       1.53224681
H       -6.67161271      -6.96920743       1.93946709
H       -6.13800114      -2.11087180       2.29398134
H       -7.60673154      -1.50262577       1.54664600
H       -3.07960274      -3.17805937      -3.08990217
H       -0.69505578      -2.89139906      -3.61260383
H        0.73244895      -1.43927628      -2.20542970
H       -2.66166239      -0.50507106       0.27236544
H       -7.76780966      -4.05075049      -2.75743513
H      -10.12368723      -4.32428944      -3.41298334
H      -11.87379566      -2.87963535      -2.42071599
H       -8.86687151      -0.76443914      -0.18903326
C      -11.48166412      -0.92380187      -0.62738826
C      -12.33117836      -0.22586499      -0.13176172
Br     -13.70477104       0.90263992       0.66962447
C       -2.72149658       0.40933942      12.88434246
O       -2.83206546      -0.33440608      11.67527590
C       -1.95147202       0.00977101      10.68654438
C       -0.71722958       0.62568668      10.88477296
C        0.10098287       0.92711915       9.79325509
C       -0.30837303       0.62400236       8.48719015
C       -1.53575744      -0.02462532       8.29850701
C       -2.34709597      -0.33162724       9.39239664
C        0.58590200       0.94734551       7.31881814
N       -0.05859853       1.79987809       6.32087166
N       -0.28068485       1.26146813       5.10358451
C       -0.88407998       2.22836731       4.39630476
C       -1.29651417       1.96416657       3.01453166
C       -2.50033020       2.46639423       2.49971862
C       -2.88151798       2.19018625       1.18311385
C       -2.07069221       1.39890563       0.37160162
C       -0.88256011       0.88256011       0.88256011
C       -0.49349443       1.15887045       2.19249560
C       -0.99431124       3.41256381       5.17879089
Cl      -1.60913187       4.91621874       4.66322765
C       -0.45964361       3.11630165       6.42646579
C       -0.35543023       3.95765924       7.62348062
C       -1.49138605       4.62355535       8.11088570
C       -1.41158549       5.46064768       9.22641819
C       -0.19695308       5.62555845       9.88642779
C        0.93425638       4.96368144       9.41423418
C        0.86616777       4.15006144       8.28009049
H       -3.57246876       0.14377993      13.51830802
H       -2.77142440       1.48767891      12.69130302
H       -1.80984469       0.14860598      13.42810140
H       -0.35520497       0.86856770      11.87848294
H        1.06277588       1.40256564       9.97648198
H       -1.87037531      -0.29625833       7.29778583
H       -3.29971908      -0.83207126       9.23370524
H        0.88469509       0.01240948       6.82717722
H        1.50948993       1.44729946       7.62490178
H       -3.16877458       3.06061639       3.11817331
H       -3.81678614       2.58736651       0.79490602
H       -2.37663639       1.18434526      -0.64872461
H        0.43276073       0.74390365       2.58322510
H       -2.45398172       4.50260017       7.61941339
H       -2.29923668       5.98268595       9.57903737
H       -0.14116685       6.27394079      10.75903935
H        1.77077673       3.68264503       7.90847562
C        2.18867916       5.11699640      10.10453701
C        3.23925824       5.24539768      10.68266563
Br       4.93795576       5.45301169      11.61745072
C       -2.32377099      -9.27420715       9.06474231
O       -2.44724955      -7.89766822       8.72251660
C       -2.34985238      -7.60873673       7.38890306
C       -2.61934657      -8.49728980       6.34974599
C       -2.48747466      -8.08560367       5.02126236
C       -2.07579080      -6.78120450       4.71415183
C       -1.83833524      -5.88417895       5.76379542
C       -1.97904637      -6.29683055       7.09008119
C       -1.94427336      -6.34683710       3.27769789
N       -0.61196155      -5.84105319       2.95025664
N       -0.51320597      -4.53551686       2.62342659
C        0.79116312      -4.32981821       2.38777072
C        1.25883386      -2.98756956       2.02880898
C        2.47439096      -2.48115783       2.51089427
C        2.89466140      -1.19251861       2.16763807
C        2.09910879      -0.39193507       1.35015560
C        0.88256011      -0.88256011       0.88256011
C        0.46016950      -2.16864999       1.21604100
C        1.51256053      -5.54962356       2.52348185
Cl       3.17502279      -5.78369907       2.22985640
C        0.58896632      -6.51900251       2.89444222
C        0.79499426      -7.93801015       3.20356568
C        1.77726586      -8.31544667       4.13311457
C        2.01963651      -9.66150839       4.41750646
C        1.26527286     -10.65086276       3.79280370
C        0.28382586     -10.28583150       2.87400187
C        0.05905657      -8.94213368       2.56279392
H       -2.26298476      -9.34275608      10.15478539
H       -1.40376728      -9.70374950       8.65042411
H       -3.20163484      -9.84214308       8.74604383
H       -2.95100123      -9.51273095       6.54052588
H       -2.71019099      -8.79767602       4.22878671
H       -1.54167492      -4.85629728       5.55728045
H       -1.78851659      -5.59282416       7.89704548
H       -2.67104265      -5.54895831       3.07697595
H       -2.16652607      -7.15476034       2.57447703
H        3.10173125      -3.07020053       3.17563250
H        3.84065684      -0.81198667       2.54641516
H        2.43021965       0.61038317       1.09242056
H       -0.49536735      -2.53842700       0.85130836
H        2.37245140      -7.56107446       4.64246942
H        2.79757780      -9.93562478       5.12775744
H        1.45357517     -11.69813159       4.02244023
H       -0.68006099      -8.68893599       1.81146891
C       -0.51112684     -11.30490762       2.23907347
C       -1.17689973     -12.15838386       1.70732094
Br      -2.25339818     -13.53838277       0.84752206
