101
Properties=species:S:1:pos:R:3 pbc="F F F"
C        0.00000000       0.00000000       0.00000000
C        0.88197776       0.88197776      -0.88197776
C        1.21995454       2.16631743      -0.45900834
C        2.02952906       2.97184133      -1.26509326
C        2.49939132       2.49240018      -2.49244924
S        3.54587571       3.50586297      -3.52057813
S        2.15888702       4.52089389      -4.65348494
C        1.67407854       3.28459056      -5.84496791
C        0.35860537       2.80577763      -5.83580024
C       -0.03884818       1.81579037      -6.73769840
C        0.87992768       1.30773347      -7.65363884
C        2.18919426       1.78506221      -7.68106312
C        2.58408396       2.77686210      -6.77887288
C        2.15726687       1.19885805      -2.90377786
C        1.34509945       0.39378796      -2.10237516
H        0.86237279       2.54925006       0.49360678
H        2.28948733       3.97237032      -0.92818095
H       -0.36288488       3.19091520      -5.11831130
H       -1.06144488       1.44873240      -6.71339843
H        2.90860078       1.39296627      -8.39541768
H        3.60843853       3.14241801      -6.80650239
H        2.51654057       0.80959671      -3.85438763
H        1.08479421      -0.60719932      -2.43677855
C        0.47416732       0.27977097      -8.57681359
C        0.13434303      -0.58114763      -9.34997244
Br      -0.41512412      -1.97318019     -10.60010492
C       -0.88197776      -0.88197776      -0.88197776
C       -1.09157698      -0.53752825      -2.21617509
C       -1.89628897      -1.34658724      -3.02358744
C       -2.49026151      -2.49803334      -2.49594590
S       -3.50520159      -3.54545575      -3.52165947
S       -5.36311806      -2.69367280      -3.27647499
C       -5.84021789      -3.29682129      -1.66659783
C       -5.99879960      -2.38607362      -0.61531003
C       -6.34184878      -2.83505616       0.66226436
C       -6.53157888      -4.19690475       0.88718364
C       -6.38881991      -5.11243520      -0.15406449
C       -6.04725844      -4.66068249      -1.43187801
C       -2.26792907      -2.83609325      -1.15588046
C       -1.46801201      -2.02719784      -0.34605273
H       -0.63385886       0.35384021      -2.63799742
H       -2.05466581      -1.07180545      -4.06356734
H       -5.84419085      -1.32186147      -0.78028930
H       -6.45397209      -2.11672445       1.47001059
H       -6.53801917      -6.17554710       0.01658153
H       -5.93649330      -5.38258821      -2.23827742
H       -2.72028783      -3.72976916      -0.73046791
H       -1.30749723      -2.30056612       0.69368991
C       -6.87494060      -4.66189203       2.20608075
C       -7.16250604      -5.05131887       3.31065707
Br      -7.62747503      -5.68098914       5.09666356
C       -0.88197776       0.88197776       0.88197776
C       -2.08912681       1.37073311       0.38542040
C       -2.89722826       2.17527283       1.19396257
C       -2.49715505       2.49010349       2.49698220
S       -3.52826898       3.50210943       3.54193840
S       -2.86474107       5.39389583       3.07462894
C       -1.33266126       5.48683569       3.98414007
C       -0.12642686       5.59225485       3.28150153
C        1.08932479       5.63579309       3.96817229
C        1.09792133       5.57895931       5.36026201
C       -0.09703073       5.48647252       6.07181633
C       -1.31230925       5.44483528       5.38267441
C       -1.28506543       1.98887562       2.98596173
C       -0.47393012       1.18855557       2.17877689
H       -2.41152730       1.13139045      -0.62490168
H       -3.83781735       2.55231333       0.79990792
H       -0.12359099       5.62860380       2.19414684
H        2.01793138       5.71008475       3.40853258
H       -0.09496133       5.44402950       7.15799390
H       -2.24002927       5.37109925       5.94623041
H       -0.96037003       2.22203089       3.99812398
H        0.46635828       0.80968553       2.57104618
C        2.35113610       5.61319040       6.06869758
C        3.40070348       5.64185893       6.66201237
Br       5.09776515       5.68821354       7.62135222
C        0.88197776      -0.88197776       0.88197776
C        0.49677067      -1.15518381       2.19332583
C        1.30270371      -1.96477421       2.99898573
C        2.49218845      -2.49938311       2.49266918
S        3.51906467      -3.54638787       3.50686427
S        4.74137822      -2.16744079       4.42444683
C        5.90132362      -1.77559573       3.12671766
C        5.92267762      -0.47952674       2.59797889
C        6.79974158      -0.15450617       1.56039283
C        7.66041167      -1.12638233       1.05450599
C        7.65746183      -2.41701632       1.58084144
C        6.78027204      -2.73939783       2.62014907
C        2.86556977      -2.22192761       1.17240540
C        2.06442644      -1.40991253       0.36692360
H       -0.42629659      -0.74693528       2.59737738
H        0.99534411      -2.17399243       4.02070206
H        5.24805284       0.28307741       2.98136620
H        6.79939239       0.85386392       1.15515748
H        8.32876491      -3.17767782       1.19054200
H        6.78382221      -3.74970824       3.02382848
H        3.78632631      -2.63202396       0.76217463
H        2.36927594      -1.20026774      -0.65517024
C        8.55756009      -0.79530741      -0.02211563
C        9.30892190      -0.51803217      -0.92378623
Br      10.52381039      -0.06970155      -2.38171134
