177
Properties=species:S:1:pos:R:3 pbc="F F F"
C        0.00000000       0.00000000       0.00000000
C        0.88136154       0.88136154      -0.88136154
C        2.21519720       1.08848590      -0.54330737
C        3.02789144       1.87354382      -1.37045859
C        2.51090441       2.49276119      -2.51796377
C        1.15922419       2.28266825      -2.82761041
C        0.35191331       1.46824391      -2.02555749
C        3.37577962       3.29222801      -3.40278450
N        4.22401011       4.30380025      -2.98303113
N        5.00679616       4.77040760      -3.96942516
C        4.52786380       4.23423250      -5.09531837
C        5.05877610       4.70122862      -6.37994497
C        5.34540924       6.06855405      -6.54446637
C        5.84184861       6.56067462      -7.75406578
C        6.05372292       5.68415508      -8.81311063
Br       6.71376900       6.34380893     -10.45727183
C        5.79099013       4.32346052      -8.66684767
C        5.30714199       3.83112432      -7.44846838
C        3.50591870       3.27704874      -4.79637231
C        2.73243487       2.44508625      -5.75909446
C        4.25612850       4.96133115      -1.66924379
C        5.34547447       6.00712615      -1.51505170
C        6.50945789       5.68113256      -0.78246411
C        7.56439005       6.58985520      -0.68416983
C        7.47807979       7.81595949      -1.32287690
F        8.50170874       8.67562152      -1.24336263
C        6.33843780       8.17250856      -2.04072716
C        5.27379151       7.27614431      -2.12033249
Cl       3.86080874       7.80104760      -2.97343918
H        2.63631736       0.63239383       0.34807075
H        4.08042524       1.96984532      -1.11287708
H        0.71101814       2.74689713      -3.70048247
H       -0.68639361       1.29977453      -2.30666476
H        5.18500442       6.75933677      -5.71909827
H        6.05664317       7.62091281      -7.85153824
H        5.96614440       3.63466775      -9.48965730
H        5.14337337       2.76290856      -7.34408879
H        1.65794975       2.61315900      -5.64932731
H        2.93999221       1.38289745      -5.59832867
H        2.96078738       2.68065694      -6.80010215
H        4.40261008       4.17926288      -0.92014803
H        3.26477257       5.39995169      -1.50077753
H        6.60448973       4.71220803      -0.30041077
H        8.46106097       6.33801326      -0.12287638
H        6.30507232       9.13842227      -2.52911239
C       -0.88136154      -0.88136154      -0.88136154
C       -0.40586829      -2.10895078      -1.33217140
C       -1.22850952      -2.92749470      -2.11588963
C       -2.51505289      -2.51437401      -2.49220246
C       -2.96462333      -1.26536749      -2.03951202
C       -2.16137801      -0.45979658      -1.22454012
C       -3.38949260      -3.39091842      -3.29038111
N       -3.02067536      -4.02429737      -4.46586875
N       -3.95468745      -4.87983292      -4.91210855
C       -5.03890315      -4.65310724      -4.16540429
C       -6.29831019      -5.30735481      -4.53428469
C       -6.63009018      -5.43280986      -5.89552962
C       -7.82438832      -6.03854008      -6.29366061
C       -8.70011331      -6.52314353      -5.32773180
Br     -10.32400850      -7.33326953      -5.85757174
C       -8.38407488      -6.42300686      -3.97421659
C       -7.17948324      -5.82829930      -3.57895215
C       -4.73498505      -3.73284006      -3.11151463
C       -5.65314372      -3.23175488      -2.05171698
C       -1.82986668      -3.76872986      -5.28810690
C       -1.69456804      -4.67424381      -6.49884047
C       -0.77377482      -5.74564929      -6.45363046
C       -0.67686939      -6.64405986      -7.51748582
C       -1.50076750      -6.49514799      -8.62100069
F       -1.41890664      -7.37223305      -9.62955319
C       -2.40857310      -5.44130665      -8.70179377
C       -2.49033880      -4.52890197      -7.65102754
Cl      -3.59234769      -3.20574314      -7.83720468
H        0.59229197      -2.44570042      -1.06723200
H       -0.85205035      -3.90644538      -2.40465191
H       -3.94947107      -0.89819348      -2.31073320
H       -2.54800115       0.49211264      -0.86415716
H       -5.94813874      -5.05874502      -6.65655570
H       -8.05315741      -6.12392014      -7.35201667
H       -9.06187804      -6.81086577      -3.21772566
H       -6.93600146      -5.79289689      -2.52147237
H       -5.71299634      -2.14042577      -2.06701394
H       -5.30636791      -3.55066309      -1.06418733
H       -6.67856608      -3.58304431      -2.17993607
H       -0.95760199      -3.90117276      -4.64324624
H       -1.86250420      -2.71418446      -5.58881313
H       -0.14137045      -5.89305900      -5.58267908
H        0.02957917      -7.46997327      -7.48155651
H       -3.03858549      -5.35565961      -9.57836189
C       -0.88136154       0.88136154       0.88136154
C       -2.21723998       0.54758642       1.08216407
C       -3.01445692       1.34231703       1.91511989
C       -2.50142430       2.49810560       2.52209946
C       -1.15681093       2.82255532       2.29013660
C       -0.34508605       2.01125629       1.48937237
C       -3.33366355       3.31456313       3.42256545
N       -4.60441827       3.77987984       3.12654338
N       -5.19943652       4.37295282       4.17423957
C       -4.24756380       4.50816826       5.10168261
C       -4.54104130       5.29543536       6.30347303
C       -5.30882311       6.46782866       6.18177788
C       -5.60382961       7.25548254       7.29727686
C       -5.12839228       6.87480173       8.54779464
Br      -5.51277654       7.94152852      10.06054470
C       -4.37894775       5.70901381       8.69333676
C       -4.09721847       4.91401698       7.57549925
C       -3.05000231       3.84135498       4.68798245
C       -1.76628747       3.73528588       5.43504223
C       -5.27198286       3.79717455       1.81754603
C       -6.69144070       4.33447451       1.84173711
C       -7.77012242       3.42320370       1.77972845
C       -9.08742544       3.87450300       1.87648664
C       -9.34095113       5.22507133       2.05089373
F      -10.60558603       5.65039712       2.16470974
C       -8.30012088       6.14990455       2.10164809
C       -6.98474517       5.70430189       1.98122125
Cl      -5.73886957       6.90745137       1.98897457
H       -2.64298292      -0.33410827       0.61176579
H       -4.03826446       1.02456204       2.10032114
H       -0.71614798       3.71122805       2.73102171
H        0.70282984       2.27223546       1.35064006
H       -5.68661540       6.76983299       5.20699106
H       -6.20113542       8.15420909       7.17374971
H       -4.01547300       5.40354628       9.67145018
H       -3.54275346       3.99123776       7.71637950
H       -0.93564289       4.13629645       4.84849671
H       -1.55180081       2.69045595       5.67896156
H       -1.77012537       4.30599825       6.36542284
H       -5.28513891       2.76879911       1.44808297
H       -4.64168633       4.38502676       1.13878870
H       -7.58666513       2.35779354       1.67264986
H       -9.91723453       3.17315273       1.83156333
H       -8.53398535       7.19806180       2.24055983
C        0.88136154      -0.88136154       0.88136154
C        0.40701732      -1.32965828       2.11031488
C        1.20734075      -2.16218938       2.90236372
C        2.50138093      -2.52210539       2.49814305
C        2.96293595      -2.04320262       1.26336428
C        2.15332698      -1.24214911       0.45023862
C        3.32874921      -3.42323734       3.31880558
N        3.56825991      -3.26820727       4.67437430
N        4.23154672      -4.30656977       5.20851243
C        4.63504762      -5.04870570       4.17366135
C        5.55265295      -6.16516517       4.42213157
C        6.57858727      -6.00817533       5.37166706
C        7.48298996      -7.04035747       5.63324157
C        7.36785256      -8.24161493       4.94152115
Br       8.59503326      -9.63913760       5.28067890
C        6.34962637      -8.42390496       4.00776699
C        5.43589704      -7.39247469       3.75836295
C        4.07849722      -4.54736631       2.95347622
C        4.26227294      -5.09379032       1.58055232
C        3.29293650      -2.08812186       5.50564507
C        3.63264335      -2.25993684       6.97507214
C        2.58672150      -2.48840464       7.89792844
C        2.86717011      -2.72692188       9.24432308
C        4.18222311      -2.75619663       9.67849644
F        4.44694113      -3.00672159      10.96703017
C        5.23460994      -2.52076570       8.79629787
C        4.95581028      -2.25861786       7.45584017
Cl       6.30138861      -1.91206679       6.42184011
H       -0.58588440      -1.05321753       2.45330731
H        0.78802083      -2.54469547       3.83043134
H        3.96008942      -2.28750903       0.91079929
H        2.52750407      -0.90898780      -0.51644620
H        6.67252564      -5.07219711       5.91871671
H        8.26358716      -6.89177067       6.37373639
H        6.25089786      -9.36582220       3.47374940
H        4.62871389      -7.56790665       3.05375018
H        4.67501932      -4.33724800       0.90816873
H        3.30610177      -5.43911299       1.17600357
H        4.96460052      -5.92867321       1.54827275
H        2.22732288      -1.86614853       5.40854958
H        3.84745914      -1.24737569       5.07066696
H        1.55184333      -2.49773258       7.56753262
H        2.06267307      -2.90544142       9.95383611
H        6.25078990      -2.55271902       9.16909806
