185
Properties=species:S:1:pos:R:3 pbc="F F F"
C        0.00000000       0.00000000       0.00000000
C        0.88136154       0.88136154      -0.88136154
C        2.21519720       1.08848590      -0.54330737
C        3.02789144       1.87354382      -1.37045859
C        2.51090441       2.49276119      -2.51796377
C        1.15922419       2.28266825      -2.82761041
C        0.35191331       1.46824391      -2.02555749
C        3.37577962       3.29222801      -3.40278450
N        4.22401011       4.30380025      -2.98303113
N        5.00679616       4.77040760      -3.96942516
C        4.52786380       4.23423250      -5.09531837
C        5.05877610       4.70122862      -6.37994497
C        5.34540924       6.06855405      -6.54446637
C        5.84184861       6.56067462      -7.75406578
C        6.05372292       5.68415508      -8.81311063
C        5.79099013       4.32346052      -8.66684767
C        5.30714199       3.83112432      -7.44846838
C        3.50591870       3.27704874      -4.79637231
C        2.73243487       2.44508625      -5.75909446
C        4.25612850       4.96133115      -1.66924379
C        5.34547447       6.00712615      -1.51505170
C        6.50945789       5.68113256      -0.78246411
C        7.56439005       6.58985520      -0.68416983
C        7.47807979       7.81595949      -1.32287690
F        8.50170874       8.67562152      -1.24336263
C        6.33843780       8.17250856      -2.04072716
C        5.27379151       7.27614431      -2.12033249
Cl       3.86080874       7.80104760      -2.97343918
H        2.63631736       0.63239383       0.34807075
H        4.08042524       1.96984532      -1.11287708
H        0.71101814       2.74689713      -3.70048247
H       -0.68639361       1.29977453      -2.30666476
H        5.18500442       6.75933677      -5.71909827
H        6.05664317       7.62091281      -7.85153824
H        5.96614440       3.63466775      -9.48965730
H        5.14337337       2.76290856      -7.34408879
H        1.65794975       2.61315900      -5.64932731
H        2.93999221       1.38289745      -5.59832867
H        2.96078738       2.68065694      -6.80010215
H        4.40261008       4.17926288      -0.92014803
H        3.26477257       5.39995169      -1.50077753
H        6.60448973       4.71220803      -0.30041077
H        8.46106097       6.33801326      -0.12287638
H        6.30507232       9.13842227      -2.52911239
C        6.55647656       6.18660995     -10.06545958
C        6.97753272       6.60741590     -11.11430183
Br       7.65834494       7.28782354     -12.81019103
C       -0.88136154      -0.88136154      -0.88136154
C       -0.39520128      -2.09567476      -1.35611443
C       -1.21734835      -2.91476318      -2.13978232
C       -2.51473867      -2.51469333      -2.49219737
C       -2.97525378      -1.27862611      -2.01562296
C       -2.17187482      -0.47321945      -1.20062044
C       -3.38806864      -3.39230257      -3.29042092
N       -3.02712943      -4.00391173      -4.47980032
N       -3.95532778      -4.86627620      -4.92502494
C       -5.03191784      -4.66538496      -4.16011187
C       -6.28716252      -5.33219151      -4.52059566
C       -6.63640824      -5.44330745      -5.87871397
C       -7.82764898      -6.06027531      -6.26866472
C       -8.68274789      -6.57068109      -5.29755966
C       -8.34899646      -6.48499355      -3.94730832
C       -7.14735090      -5.87886030      -3.56052349
C       -4.72598483      -3.75571565      -3.09763927
C       -5.63594772      -3.28254020      -2.01812767
C       -1.85177436      -3.72004012      -5.31488896
C       -1.72100555      -4.60654619      -6.54010058
C       -0.78478832      -5.66532690      -6.52293935
C       -0.69042362      -6.54732654      -7.60066491
C       -1.53187144      -6.39470141      -8.69034332
F       -1.45206279      -7.25636538      -9.71226472
C       -2.45536236      -5.35280034      -8.74351082
C       -2.53497122      -4.45641206      -7.67888503
Cl      -3.65788182      -3.14652590      -7.83088779
H        0.61121848      -2.42191828      -1.10994064
H       -0.83138002      -3.88415353      -2.44761408
H       -3.96887762      -0.92168789      -2.26783224
H       -2.56661277       0.46799038      -0.82142328
H       -5.97059777      -5.04902561      -6.64381608
H       -8.07017316      -6.13409577      -7.32482529
H       -9.01053103      -6.89294460      -3.18699382
H       -6.88943125      -5.85478693      -2.50615254
H       -5.71124929      -2.19206130      -2.01712546
H       -5.27079627      -3.61026695      -1.04015510
H       -6.65807658      -3.64649553      -2.13697436
H       -0.96869701      -3.84910771      -4.68421627
H       -1.90339560      -2.66196541      -5.60014078
H       -0.13811188      -5.81591439      -5.66308225
H        0.02793078      -7.36357060      -7.58631078
H       -3.09886413      -5.26385096      -9.60989189
C       -9.91651325      -7.19951283      -5.69252000
C      -10.94979174      -7.72615942      -6.02329929
Br     -12.62051566      -8.57770241      -6.55814143
C       -0.88136154       0.88136154       0.88136154
C       -2.21277299       0.53837462       1.09584287
C       -3.00967833       1.33339896       1.92881655
C       -2.50122860       2.49827565       2.52212511
C       -1.16126008       2.83175300       2.27648977
C       -0.34944940       2.02054397       1.47572134
C       -3.33278237       3.31529465       3.42271511
N       -4.60968588       3.76779572       3.13335988
N       -5.20100014       4.36458714       4.18104163
C       -4.24274582       4.51516657       5.09950228
C       -4.53287920       5.30986153       6.29720896
C       -5.31123116       6.47492157       6.17227693
C       -5.60359964       7.26928201       7.28370735
C       -5.11487912       6.90277190       8.53333762
C       -4.35472319       5.74436329       8.68221184
C       -4.07558977       4.94253299       7.56861193
C       -3.04315772       3.85475643       4.68142560
C       -1.75257117       3.76528933       5.41875508
C       -5.28801238       3.76889843       1.82979262
C       -6.71159154       4.29479668       1.86126411
C       -7.78322105       3.37428939       1.81554412
C       -9.10335460       3.81562106       1.91943941
C       -9.36653600       5.16546609       2.08491409
F      -10.63365264       5.58139520       2.20564505
C       -8.33295851       6.09913406       2.11958095
C       -7.01499178       5.66328852       1.99198801
Cl      -5.77901909       6.87657144       1.97970498
H       -2.63507755      -0.35059349       0.63615638
H       -4.02929845       1.00884542       2.12500377
H       -0.72433426       3.72757782       2.70648566
H        0.69512241       2.28890360       1.32626448
H       -5.69942052       6.76582085       5.19819808
H       -6.20925403       8.16206745       7.15777274
H       -3.98079487       5.44991170       9.65976289
H       -3.51243438       4.02549000       7.71244633
H       -0.93005473       4.16822252       4.82215881
H       -1.52752937       2.72428034       5.66940862
H       -1.75351675       4.34357442       6.34445530
H       -5.29573051       2.73744985       1.46884063
H       -4.66811657       4.35627106       1.14111416
H       -7.59189712       2.30956563       1.71564578
H       -9.92771325       3.10718820       1.88704916
H       -8.57428519       7.14645687       2.25186492
C       -5.40492954       7.72231702       9.68129954
C       -5.64784676       8.40868606      10.64271764
Br      -6.04062337       9.51848674      12.19724939
C        0.88136154      -0.88136154       0.88136154
C        0.43244501      -1.27685779       2.13768768
C        1.23152662      -2.10961020       2.93075702
C        2.50064747      -2.52218420       2.49879770
C        2.93753678      -2.09588676       1.23607931
C        2.12755648      -1.29493223       0.42322600
C        3.32555666      -3.42344978       3.32178569
N        3.61218001      -3.23478133       4.66388014
N        4.25997447      -4.27672045       5.20993399
C        4.60793423      -5.06237173       4.18710871
C        5.49844194      -6.19903533       4.44247242
C        6.55802924      -6.04550868       5.35489174
C        7.43832768      -7.09716130       5.62110002
C        7.26494037      -8.31473006       4.97131821
C        6.21277881      -8.49329396       4.07522556
C        5.32352238      -7.44172833       3.82148399
C        4.02883729      -4.58120659       2.96929586
C        4.15261927      -5.17473009       1.60926622
C        3.39922298      -2.02183536       5.46564509
C        3.77956388      -2.15937814       6.92871030
C        2.75669495      -2.32661637       7.88974325
C        3.07193343      -2.53268441       9.23379723
C        4.39848262      -2.59004112       9.62839244
F        4.69582055      -2.80937437      10.91549797
C        5.42930079      -2.41481047       8.70756227
C        5.11661657      -2.18500538       7.36864636
Cl       6.43895947      -1.91260552       6.28373053
H       -0.54029542      -0.95901256       2.50192330
H        0.83012746      -2.45027961       3.88274057
H        3.91520337      -2.38205391       0.86114046
H        2.48113805      -1.00331807      -0.56441045
H        6.69760406      -5.09670773       5.86912767
H        8.24598512      -6.95068802       6.33242108
H        6.06864713      -9.44748042       3.57434190
H        4.48961435      -7.61309152       3.14766485
H        4.56688996      -4.45238344       0.90116265
H        3.17412154      -5.50199129       1.24510549
H        4.82781163      -6.03187624       1.58185859
H        2.33834452      -1.76953297       5.39414350
H        3.96516412      -1.21258688       4.98775079
H        1.71213790      -2.31347054       7.59150008
H        2.28507294      -2.66411493       9.97276274
H        6.45525246      -2.46731766       9.05003687
C        8.17445767      -9.39970765       5.23438077
C        8.93617841     -10.30837638       5.45469567
Br      10.16781642     -11.77761687       5.81092622
