185
Properties=species:S:1:pos:R:3 pbc="F F F"
C        0.00000000       0.00000000       0.00000000
C        0.88263472       0.88263472      -0.88263472
C        2.23827428       0.58735008      -1.01668707
C        3.04230537       1.40332298      -1.81440263
C        2.49639495       2.51311961      -2.47282126
C        1.13487477       2.79643918      -2.33107077
C        0.32516489       1.98177135      -1.53644195
C        3.35787989       3.37330699      -3.28641563
C        3.71901668       3.09409898      -4.54877796
C        3.32591175       2.00179985      -5.46886968
C        4.61870239       4.17137848      -4.90507937
C        5.62065068       4.15972415      -5.97658040
C        6.93834645       3.78353601      -5.68416695
C        7.89942090       3.71778435      -6.69429175
C        7.54016729       4.03891117      -8.00163568
C        6.23340066       4.42285117      -8.30639623
C        5.27251606       4.47736739      -7.29260362
N        4.77490934       5.06265911      -3.75782545
N        3.82568585       4.50466123      -2.71489587
C        4.44461973       6.45357280      -4.11276180
C        4.55403507       7.43519028      -2.96891093
C        3.38751788       8.01312591      -2.44853937
F        2.18954528       7.74271093      -2.99133527
C        3.42244395       8.92226953      -1.39094812
C        4.63960360       9.27844552      -0.82387962
C        5.81584664       8.72398372      -1.32895779
C        5.77577532       7.81024013      -2.39466843
Cl       7.29834920       7.24086149      -2.98934459
H        2.68338062      -0.25704384      -0.50178562
H        4.10647129       1.20271004      -1.91296718
H        0.72403021       3.66998524      -2.83067607
H       -0.72672987       2.22483633      -1.42839567
H        2.96987272       2.41384870      -6.42000378
H        2.51055220       1.39598007      -5.06175942
H        4.17102282       1.33875590      -5.67503477
H        7.20022649       3.54273834      -4.65465724
H        8.91253352       3.41862033      -6.44476217
H        5.95167033       4.67967705      -9.32258373
H        4.25240862       4.77357068      -7.52048561
H        3.43406442       6.50232737      -4.54337206
H        5.10944179       6.80940004      -4.91116922
H        2.49062466       9.33951981      -1.02305515
H        4.67565884       9.98147665       0.00195182
H        6.77037831       9.00349462      -0.89064490
C        8.52665280       3.97226600      -9.04853814
C        9.35283442       3.91645067      -9.92531895
Br      10.68870021       3.82620200     -11.34299936
C       -0.88263472      -0.88263472      -0.88263472
C       -0.61546076      -2.24723520      -0.97961547
C       -1.41716252      -3.04671705      -1.79615141
C       -2.47945770      -2.48566444      -2.51721367
C       -2.73726275      -1.11601093      -2.40911105
C       -1.94008762      -0.31187725      -1.59141332
C       -3.29609418      -3.33326654      -3.38824179
C       -4.30446060      -4.10484715      -2.95258588
C       -4.92366604      -4.25732347      -1.61559176
C       -4.75219830      -4.80385200      -4.13910994
C       -5.51872998      -6.05386489      -4.18436035
C       -4.84017082      -7.27517298      -4.29070560
C       -5.54287932      -8.48121169      -4.28740598
C       -6.93236359      -8.46252148      -4.18582907
C       -7.62222803      -7.25327526      -4.08714476
C       -6.91274619      -6.04884880      -4.08089207
N       -3.91575331      -4.40930686      -5.27033372
N       -2.99531765      -3.34454804      -4.70537727
C       -4.73108816      -3.89553832      -6.38432785
C       -3.93504082      -3.43828231      -7.58481315
C       -3.88474471      -2.07150187      -7.89293658
F       -4.57753111      -1.18057176      -7.16548861
C       -3.16405334      -1.58688073      -8.98472753
C       -2.46980721      -2.46919429      -9.80292723
C       -2.51066880      -3.83521029      -9.52290907
C       -3.23869197      -4.31848971      -8.42350220
Cl      -3.28060090      -6.03592549      -8.21202888
H        0.21241092      -2.69760839      -0.44292493
H       -1.21047375      -4.10894615      -1.90272860
H       -3.55187142      -0.68637872      -2.98644138
H       -2.14778345       0.75129224      -1.53001092
H       -6.00861264      -4.11578601      -1.67932654
H       -4.54936615      -3.51576620      -0.90315934
H       -4.72917708      -5.25179717      -1.20383923
H       -3.75427224      -7.26765776      -4.37569207
H       -4.99528923      -9.41513282      -4.36549396
H       -8.70495625      -7.23482021      -4.01415464
H       -7.44093093      -5.10269075      -4.00284323
H       -5.37211722      -3.07378407      -6.03386256
H       -5.42848631      -4.66924393      -6.73228082
H       -3.15509726      -0.51919841      -9.17890395
H       -1.90303929      -2.10047201     -10.65167237
H       -1.97221727      -4.52899771     -10.16330285
C       -7.66325126      -9.70323884      -4.18096683
C       -8.27536969     -10.74233963      -4.17689471
Br      -9.26511342     -12.42247772      -4.17031044
C       -0.88263472       0.88263472       0.88263472
C       -0.44377275       2.15563413       1.24290455
C       -1.24826483       2.95305710       2.05870904
C       -2.48487078       2.48013550       2.51732954
C       -2.91345672       1.20222766       2.14670034
C       -2.11384988       0.40118658       1.32834173
C       -3.30616835       3.31923628       3.39219788
C       -4.10741998       4.30226338       2.95221027
C       -4.46683925       4.74473766       1.58500437
C       -4.64258684       4.88992022       4.16265319
C       -5.21995424       6.23089728       4.30610371
C       -4.40169582       7.29414650       4.71020709
C       -4.91496015       8.58849063       4.80804621
C       -6.25633231       8.81646924       4.50791258
C       -7.08518044       7.76578255       4.11168507
C       -6.56348485       6.47324231       4.00575990
N       -4.07137751       4.20434806       5.31966832
N       -3.23078737       3.09247029       4.72198529
C       -5.12583668       3.68040216       6.20471550
C       -4.61452543       2.93051847       7.41309237
C       -4.81152337       1.54474139       7.49291841
F       -5.49301406       0.89466609       6.53591133
C       -4.35950241       0.79620916       8.57995003
C       -3.69295089       1.42470793       9.62426992
C       -3.49154458       2.80416244       9.57308114
C       -3.94963971       3.55369323       8.47735094
Cl      -3.71063264       5.26642218       8.55150045
H        0.51760246       2.53340844       0.91231642
H       -0.91308445       3.93976877       2.36929529
H       -3.86571573       0.83668865       2.52228715
H       -2.45768124      -0.59270914       1.06153003
H       -5.55615842       4.77852148       1.46904530
H       -4.08845456       4.06028507       0.81955206
H       -4.06676268       5.74120733       1.37684347
H       -3.35748285       7.09359724       4.94654198
H       -4.26070321       9.39721908       5.11799372
H       -8.13200016       7.93875640       3.88317455
H       -7.20055845       5.64933279       3.69657366
H       -5.80985229       3.03549003       5.63442153
H       -5.75408357       4.50202337       6.57390412
H       -4.53522671      -0.27462750       8.59260041
H       -3.33406083       0.84954320      10.47157964
H       -2.97419173       3.30003574      10.39029036
C       -6.79188958      10.14957006       4.60599730
C       -7.24041878      11.26604200       4.68814325
Br      -7.96565257      13.07128270       4.82096630
C        0.88263472      -0.88263472       0.88263472
C        2.13385922      -0.42078359       1.28766861
C        2.94084715      -1.23537401       2.08380981
C        2.50267613      -2.50866835       2.47099134
C        1.24479612      -2.95839896       2.05918965
C        0.43204833      -2.14643260       1.26489727
C        3.37089803      -3.36071096       3.28599352
C        3.49174075      -3.25169956       4.61845332
C        2.78843297      -2.40144365       5.60670466
C        4.50070648      -4.23166908       4.96278469
C        5.31946559      -4.25769769       6.17979195
C        6.58186295      -3.64969266       6.17449380
C        7.36046919      -3.61845961       7.33256820
C        6.87524002      -4.20685285       8.49862127
C        5.62302320      -4.82293276       8.51669209
C        4.84321636      -4.84256251       7.35670820
N        4.97182844      -4.88165548       3.74190997
N        4.10302632      -4.29769581       2.64452083
C        4.83588837      -6.34575715       3.82930882
C        5.27634152      -7.09116040       2.59063436
C        4.31382235      -7.73501870       1.80034211
F        3.02130516      -7.73824252       2.16404380
C        4.65677348      -8.43534632       0.64354180
C        5.98616063      -8.50876736       0.24700075
C        6.96438857      -7.88376058       1.02063901
C        6.61445794      -7.18108418       2.18514176
Cl       7.91463336      -6.50651805       3.10740386
H        2.49825974       0.55471119       0.98457385
H        3.92934143      -0.90207565       2.39073143
H        0.92098565      -3.95471345       2.34899243
H       -0.53586039      -2.51770008       0.94466244
H        2.37361990      -3.01715047       6.41295483
H        1.94953565      -1.86000181       5.15875422
H        3.46885020      -1.66769036       6.04827294
H        6.94554523      -3.20117490       5.25090193
H        8.33295963      -3.13709665       7.30585973
H        5.24466872      -5.28768001       9.42158238
H        3.86654900      -5.31835993       7.36155597
H        3.79681900      -6.61363584       4.06930901
H        5.42853635      -6.73226240       4.66921231
H        3.87338295      -8.91454584       0.06527082
H        6.26134151      -9.04764138      -0.65379922
H        8.00603455      -7.94261475       0.71586852
C        7.67311396      -4.17733696       9.69700601
C        8.34133339      -4.15261741      10.70065323
Br       9.42178769      -4.11264799      12.32346590
