185
Properties=species:S:1:pos:R:3 pbc="F F F"
C        0.00000000       0.00000000       0.00000000
C        0.88115713       0.88115713      -0.88115713
C        0.53322129       1.10051904      -2.21085449
C        1.32864436       1.92965132      -3.01521615
C        2.50808335       2.50211908      -2.52676817
C        2.82788307       2.27320103      -1.17372602
C        2.01702830       1.47840373      -0.35348450
C        3.39025545       3.36962939      -3.32995415
C        4.08782978       4.49503060      -2.89965153
C        4.86994657       4.95396152      -3.98463571
N        4.74381715       4.10251409      -5.00707701
N        3.75759631       3.24748083      -4.66060571
C        3.31555027       2.30188299      -5.69074729
C        3.23313321       2.88817693      -7.09683340
C        3.50173998       2.06613566      -8.20092425
C        3.47926660       2.58296547      -9.49873702
C        3.19140438       3.93057204      -9.71498289
C        2.89104829       4.77032292      -8.63574686
C        2.87826126       4.22865382      -7.33898363
C        2.62078086       6.24198314      -8.83293495
F        1.39392627       6.61310373      -8.37062757
F        3.51962039       7.03293524      -8.18285918
F        2.65936189       6.63428516     -10.13763883
C        5.73141987       6.13508555      -4.09884243
C        6.02111992       6.94475245      -2.99355803
C        6.84160270       8.07221906      -3.13000852
C        7.37270869       8.39835248      -4.37745569
C        7.08979688       7.61611519      -5.49189766
C        6.27286588       6.49144010      -5.34896121
H       -0.36310537       0.65037196      -2.62817561
H        0.96694162       2.13665665      -4.01606197
H        3.71820706       2.71820737      -0.73466060
H        2.28543688       1.33704660       0.69135861
H        4.02625543       4.93187042      -1.91259323
H        2.33239025       1.91457572      -5.44215722
H        4.03856422       1.47888874      -5.65819747
H        3.75452623       1.01737852      -8.05862739
H        3.70875689       1.93698896     -10.34309000
H        3.21195032       4.32456506     -10.72984946
H        2.64752779       4.89214335      -6.50434395
H        5.62250315       6.71323455      -2.01031766
H        7.05808916       8.68250153      -2.25857842
H        7.49262664       7.86331313      -6.47048702
H        6.05377554       5.88854019      -6.23064620
C        8.22336380       9.55216801      -4.51418765
C        8.93578745      10.51848851      -4.62870067
Br      10.08771624      12.08094703      -4.81385853
C       -0.88115713      -0.88115713      -0.88115713
C       -2.14657657      -0.44040130      -1.25761695
C       -2.94789616      -1.23829227      -2.08732339
C       -2.52713281      -2.50586380      -2.50397400
C       -1.23669300      -2.91985571      -2.11826142
C       -0.41511925      -2.11137689      -1.32242038
C       -3.33228524      -3.39356912      -3.36398463
C       -2.87400705      -4.23166833      -4.37683653
C       -3.98482844      -4.95594081      -4.86777454
N       -5.06123925      -4.65874644      -4.13342257
N       -4.69774673      -3.62890962      -3.33902648
C       -5.75957620      -3.00873821      -2.53986614
C       -7.09408288      -2.85992986      -3.26413078
C       -8.28696442      -2.94974616      -2.53208931
C       -9.52602316      -2.86318713      -3.17175881
C       -9.59407354      -2.68886398      -4.55402180
C       -8.42121089      -2.56709345      -5.30881373
C       -7.18197387      -2.61620383      -4.64772101
C       -8.46115194      -2.42386700      -6.81068002
F       -7.85171651      -1.28402024      -7.24192082
F       -7.83383573      -3.44855395      -7.45302512
F       -9.72389199      -2.38521130      -7.32218258
C       -4.07731577      -5.91401230      -5.97401978
C       -2.93823807      -6.37663062      -6.64456172
C       -3.05354183      -7.28692580      -7.70336264
C       -4.31288472      -7.73522517      -8.10040697
C       -5.45928381      -7.28117935      -7.45734657
C       -5.33764695      -6.37524560      -6.40037464
H       -2.51339289       0.52841712      -0.93046642
H       -3.88703908      -0.81162465      -2.42099652
H       -0.84819139      -3.88413949      -2.43874414
H        0.58242589      -2.45575774      -1.05779301
H       -1.85102964      -4.29962818      -4.72006126
H       -5.45227464      -2.01847903      -2.21836952
H       -5.86950577      -3.64897088      -1.65717377
H       -8.26255268      -3.11163900      -1.45634046
H      -10.44212657      -2.95406912      -2.59264016
H      -10.56756924      -2.65798881      -5.04080679
H       -6.27383986      -2.52492549      -5.24524974
H       -1.94530553      -6.04557658      -6.35517326
H       -2.15678764      -7.63713640      -8.20524506
H       -6.44663249      -7.61833319      -7.76146111
H       -6.24366735      -6.02226399      -5.90703061
C       -4.42906237      -8.67795317      -9.18270392
C       -4.52636115      -9.46748787     -10.08912761
Br      -4.68368505     -10.74409869     -11.55473806
C       -0.88115713       0.88115713       0.88115713
C       -0.54519653       2.21674892       1.08264937
C       -1.36708362       3.03413664       1.87229156
C       -2.49764978       2.52163259       2.51768824
C       -2.82009925       1.16989469       2.28481618
C       -2.02572279       0.35776408       1.46542965
C       -3.38962287       3.32964278       3.37057334
C       -4.77533477       3.23805364       3.46912350
C       -5.19346088       4.14387518       4.47120775
N       -4.11738448       4.69873577       5.03728800
N       -3.06247762       4.31845600       4.28474922
C       -1.76943755       4.92972327       4.60901972
C       -1.83991494       6.41106673       4.96716186
C       -0.93312298       6.93660554       5.89907137
C       -0.99994907       8.27837309       6.28264694
C       -1.97605322       9.11676556       5.74414054
C       -2.87758306       8.62911904       4.79041597
C       -2.77415795       7.28774214       4.38399863
C       -3.97327178       9.49865489       4.22377228
F       -3.90421937       9.60623822       2.86719998
F       -5.21884718       9.01924865       4.49731897
F       -3.95686315      10.77629189       4.69813084
C       -6.54199574       4.49782221       4.92552991
C       -7.67490315       3.80757938       4.47694787
C       -8.95360522       4.16957351       4.92065155
C       -9.10508537       5.23016212       5.81326938
C       -7.99605196       5.93797243       6.26378534
C       -6.72309613       5.57057250       5.81959856
H        0.34006271       2.63951762       0.61598729
H       -1.10798462       4.08548583       1.92618980
H       -3.70456454       0.72794551       2.73856498
H       -2.31427905      -0.67716199       1.29400780
H       -5.40519012       2.59132927       2.87419969
H       -1.09044296       4.83084881       3.76783142
H       -1.37680811       4.34803405       5.45080827
H       -0.17828555       6.29833849       6.35390810
H       -0.30177311       8.66611234       7.02095040
H       -2.03571262      10.15088446       6.07976775
H       -3.48411778       6.91612833       3.64376899
H       -7.58594982       2.97676083       3.78334472
H       -9.81761187       3.61686429       4.56469295
H       -8.10159903       6.77023400       6.95459376
H       -5.86142803       6.13596936       6.17556455
C      -10.41915288       5.59499386       6.27557272
C      -11.51968442       5.90054045       6.66275176
Br     -13.29915084       6.39458343       7.28878753
C        0.88115713      -0.88115713       0.88115713
C        2.16382097      -1.22033636       0.46043750
C        2.98374960      -2.00981195       1.27995027
C        2.51991319      -2.51958206       2.49747535
C        1.22251225      -2.14891873       2.90337915
C        0.41244694      -1.32819763       2.10827194
C        3.33152362      -3.36563117       3.39268419
C        3.34996011      -3.34787515       4.78467665
C        4.20707447      -4.38730158       5.21416775
N        4.62324602      -5.08031871       4.14984353
N        4.21494992      -4.38278335       3.06794957
C        4.68765212      -4.85725530       1.76327312
C        6.13724709      -5.33271096       1.74818548
C        6.51010635      -6.37347298       0.88522056
C        7.81876083      -6.86268368       0.87952458
C        8.77601770      -6.32257405       1.73836756
C        8.44205393      -5.26375322       2.59131092
C        7.13247371      -4.75473525       2.55868975
C        9.44254408      -4.68901154       3.56414333
F        9.64922446      -3.35589423       3.37253888
F        9.05026286      -4.82323527       4.86191668
F       10.67338962      -5.26946677       3.48842950
C        4.63724803      -4.76350407       6.56459576
C        4.08224303      -4.17134112       7.70584625
C        4.51533638      -4.54311377       8.98538013
C        5.51218563      -5.50764225       9.12868899
C        6.08650850      -6.10135156       8.00994967
C        5.64856833      -5.72819472       6.73650414
H        2.54532590      -0.86143055      -0.49131426
H        4.00204272      -2.17237053       0.94524700
H        0.82289244      -2.49343786       3.85474472
H       -0.57789039      -1.04798773       2.46102752
H        2.80707357      -2.65319299       5.41045251
H        4.59756570      -4.06616200       1.02539549
H        4.01108352      -5.67489079       1.48967612
H        5.77686224      -6.83014653       0.22352337
H        8.08743888      -7.68323181       0.21816517
H        9.78218999      -6.73871562       1.74545922
H        6.88096002      -3.93271864       3.23033643
H        3.30342679      -3.41905534       7.62357325
H        4.06701843      -4.07552333       9.85662734
H        6.86837803      -6.84969081       8.10835796
H        6.10968690      -6.19668249       5.86659254
C        5.94963773      -5.89537700      10.44470473
C        6.31600387      -6.22010485      11.54686791
Br       6.90838692      -6.74516233      13.32897255
