198
Properties=species:S:1:pos:R:3 pbc="F F F"
C        1.79106116       1.79106116      -1.79106116
C        1.44312531       2.01042307      -3.12075852
C        2.23854838       2.83955534      -3.92512018
C        3.41798737       3.41202311      -3.43667220
C        3.73778710       3.18310505      -2.08363005
C        2.92693232       2.38830775      -1.26338852
C        4.30015948       4.27953341      -4.23985817
C        4.99773381       5.40493462      -3.80955555
C        5.77985059       5.86386554      -4.89453974
N        5.65372118       5.01241812      -5.91698103
N        4.66750033       4.15738485      -5.57050973
C        4.22545429       3.21178701      -6.60065132
C        4.14303723       3.79808095      -8.00673742
C        4.41164400       2.97603969      -9.11082827
C        4.38917063       3.49286950     -10.40864104
C        4.10130841       4.84047606     -10.62488691
C        3.80095231       5.68022694      -9.54565089
C        3.78816529       5.13855784      -8.24888766
C        3.53068489       7.15188716      -9.74283897
F        2.30383029       7.52300776      -9.28053159
F        4.42952441       7.94283927      -9.09276320
F        3.56926591       7.54418919     -11.04754285
C        6.64132390       7.04498957      -5.00874646
C        6.93102394       7.85465647      -3.90346206
C        7.75150672       8.98212309      -4.03991254
C        8.28261272       9.30825651      -5.28735972
Br       9.40023350      10.82418017      -5.46700301
C        7.99970090       8.52601922      -6.40180168
C        7.18276990       7.40134413      -6.25886523
H        0.54679865       1.56027598      -3.53807964
H        1.87684565       3.04656068      -4.92596600
H        4.62811108       3.62811139      -1.64456462
H        3.19534090       2.24695062      -0.21854541
H        4.93615945       5.84177445      -2.82249725
H        3.24229427       2.82447975      -6.35206125
H        4.94846824       2.38879277      -6.56810149
H        4.66443025       1.92728255      -8.96853141
H        4.61866092       2.84689299     -11.25299403
H        4.12185434       5.23446908     -11.63975348
H        3.55743182       5.80204738      -7.41424797
H        6.53240717       7.62313858      -2.92022169
H        7.96799319       9.59240555      -3.16848244
H        8.40253066       8.77321716      -7.38039105
H        6.96367957       6.79844422      -7.14055023
C       -1.79106116      -1.79106116      -1.79106116
C       -2.82158872      -2.53238330      -1.22033488
C       -3.64764151      -3.32367115      -2.03191123
C       -3.42402006      -3.43409724      -3.40856538
C       -2.38216243      -2.66225691      -3.96010286
C       -1.57818790      -1.83907866      -3.16136204
C       -4.25043332      -4.26108299      -4.30803474
C       -4.63530549      -3.96425233      -5.61266617
C       -5.34333115      -5.08086113      -6.11406359
N       -5.31585973      -6.06119183      -5.20606877
N       -4.79069360      -5.51792664      -4.08677467
C       -4.79845194      -6.35607637      -2.88336431
C       -6.06457780      -7.18655834      -2.69671946
C       -5.97770965      -8.44237801      -2.07842429
C       -7.11052801      -9.24707286      -1.93308030
C       -8.34852862      -8.81202841      -2.40611435
C       -8.47316293      -7.55139198      -3.00227523
C       -7.33350975      -6.73561367      -3.10648737
C       -9.78882826      -7.07164985      -3.56493291
F      -10.20655479      -5.90737913      -2.99343572
F       -9.73054304      -6.83010758      -4.90447626
F      -10.81127378      -7.95640679      -3.39331738
C       -6.02509253      -5.27177503      -7.39819237
C       -5.92106990      -4.33454490      -8.43352767
C       -6.58796142      -4.53655338      -9.64902756
C       -7.36832241      -5.67761002      -9.83229652
Br      -8.25814623      -5.95448482     -11.47878563
C       -7.49613491      -6.61674083      -8.81464606
C       -6.82654617      -6.41091367      -7.60551941
H       -3.00613993      -2.48834886      -0.15066548
H       -4.48742468      -3.81168179      -1.55026585
H       -2.18336733      -2.68806467      -5.02935510
H       -0.79357346      -1.24370170      -3.62356177
H       -4.42895897      -3.03898772      -6.13248446
H       -4.68251794      -5.73732464      -1.99899268
H       -3.92139393      -7.00649185      -2.97747672
H       -5.01962507      -8.81692214      -1.72369700
H       -7.02315553     -10.22667368      -1.46871872
H       -9.21431763      -9.46611640      -2.31564288
H       -7.44006263      -5.75700867      -3.57665588
H       -5.31889019      -3.43819214      -8.31868511
H       -6.48850367      -3.79997905     -10.44039846
H       -8.10622001      -7.50686654      -8.94305231
H       -6.93824401      -7.15140699      -6.81302301
C       -1.79106116       1.79106116       1.79106116
C       -2.73835288       2.62779994       1.20815408
C       -3.56554746       3.42006948       2.01760695
C       -3.42245849       3.43497051       3.40925368
C       -2.46447512       2.56824764       3.97179944
C       -1.66195981       1.74483214       3.17183664
C       -4.25341304       4.25764969       4.30848834
C       -4.73604934       3.90915165       5.56702300
C       -5.40706162       5.03642177       6.09477248
N       -5.26506943       6.06490037       5.25315052
N       -4.70376346       5.55670813       4.13492333
C       -4.58674794       6.46314436       2.98800032
C       -5.78756460       7.38083669       2.77945431
C       -5.58830584       8.66299534       2.24721077
C       -6.66041446       9.54421446       2.08605224
C       -7.94908585       9.16043777       2.45714777
C       -8.18486859       7.87714938       2.96481217
C       -7.10402768       6.98688331       3.08469980
C       -9.55916318       7.44842356       3.41782429
F      -10.00815226       6.34829658       2.75092080
F       -9.59921203       7.12520018       4.74071467
F      -10.51494527       8.40404427       3.24200841
C       -6.15546586       5.19366214       7.34593193
C       -6.17188599       4.19238701       8.32486947
C       -6.90052397       4.36379327       9.50922511
C       -7.62224099       5.53869463       9.71729332
Br      -8.59556451       5.77325690      11.32259527
C       -7.63051813       6.54231121       8.75469246
C       -6.89981702       6.36655600       7.57660624
H       -2.85782891       2.65851050       0.12881486
H       -4.34330482       3.98724122       1.51882629
H       -2.33185573       2.51851049       5.05042088
H       -0.94427513       1.07529230       3.64126951
H       -4.61753615       2.94376404       6.03913095
H       -4.45231779       5.89153100       2.07498648
H       -3.68050937       7.05068171       3.17417142
H       -4.58948724       8.99705443       1.97370254
H       -6.48656783      10.54207591       1.68990419
H       -8.76746408       9.87165246       2.35696036
H       -7.29728866       5.99087299       3.48556552
H       -5.61755755       3.26840990       8.18979999
H       -6.89439163       3.57709102      10.25739853
H       -8.19393898       7.45978023       8.90241965
H       -6.91784274       7.15799555       6.82683573
C        1.79106116      -1.79106116       1.79106116
C        1.57009089      -1.83981238       3.16440362
C        2.36318164      -2.66770458       3.97233767
C        3.42060577      -3.41025542       3.43582150
C        3.61213963      -3.35127782       2.04110474
C        2.79868880      -2.55722766       1.22271213
C        4.29561883      -4.28566842       4.23826381
C        4.82849016      -5.51704190       3.86669192
C        5.67525832      -5.94976334       4.91323422
N        5.74525295      -4.99352390       5.84434347
N        4.81579774      -4.07434840       5.50524877
C        4.58335325      -2.98983577       6.46470360
C        4.59737390      -3.42296908       7.92751263
C        5.06384964      -2.53077483       8.90388748
C        5.13219408      -2.91233359      10.24615350
C        4.73884092      -4.19286962      10.63496085
C        4.24192707      -5.09668993       9.68821315
C        4.14125232      -4.68661929       8.34773918
C        3.85174132      -6.50372492      10.06994479
F        2.55141744      -6.78264357       9.77330863
F        4.59257967      -7.44771098       9.42483622
F        3.99344138      -6.76806859      11.39948798
C        6.42405975      -7.20070803       5.07029215
C        6.51095133      -8.14154293       4.03664822
C        7.22688645      -9.33276677       4.21388913
C        7.85605437      -9.59087462       5.43129995
Br       8.83253507     -11.19446954       5.66441207
C        7.77418502      -8.67701435       6.47632243
C        7.06078374      -7.48957442       6.29262110
H        0.77299024      -1.25604974       3.61611429
H        2.09401331      -2.73497786       5.02038115
H        4.40143982      -3.93143388       1.56791340
H        2.96434412      -2.54905443       0.14743838
H        4.61731964      -6.03924802       2.94386349
H        3.62171874      -2.52407649       6.27304004
H        5.37571888      -2.25760204       6.27204157
H        5.40125164      -1.53479609       8.62419648
H        5.51444317      -2.21551455      10.98859020
H        4.83098960      -4.48534151      11.67974580
H        3.75711348      -5.39967474       7.61693894
H        6.03232189      -7.96554435       3.07790120
H        7.28635580     -10.04547053       3.39705485
H        8.25493839      -8.86943837       7.43176211
H        6.99913087      -6.78288469       7.12065845
C       -0.00445707       0.01189536      -1.78238275
H       -0.66409135       0.67374010      -2.43557963
H        0.65740317      -0.63156657      -2.45157240
C       -0.90989263      -0.90692880      -0.91072765
C        0.90977584       0.90977584      -0.90977584
C       -0.00465871       1.77757030       0.00794375
H       -0.66225468       2.44313916      -0.64384735
H        0.64322798       2.43503045       0.67728295
C       -1.78241447       0.00034974      -0.00472694
H       -2.45427497      -0.65498947       0.64260836
H       -2.43311707       0.67328779      -0.65473579
C       -0.91132561       0.90220522       0.91563759
C       -0.01476271      -0.02253852       1.78660255
H       -0.67934791      -0.69751639       2.42135241
H        0.63392994       0.61504881       2.47327442
C        0.01484550      -1.77751727      -0.01636693
H        0.67870853      -2.42144646      -0.68295456
H       -0.62264859      -2.45592969       0.64226336
C        1.78714474       0.01002794       0.00389507
H        2.44202412       0.67113390       0.66197326
H        2.45385902      -0.65136977      -0.64189061
C        0.91606151      -0.90478549       0.90901405
