186
Properties=species:S:1:pos:R:3 pbc="F F F"
C        1.79011226       1.79011226      -1.79011226
C        2.59390906       1.21854789      -2.76597157
C        3.40492772       2.02885066      -3.58063887
C        3.45960314       3.41920258      -3.42501668
C        2.61913741       3.95936277      -2.42539196
C        1.78988184       3.16419440      -1.62197940
C        4.31208413       4.34867906      -4.21854120
C        4.23767153       5.74300446      -4.20875543
C        5.26044240       6.25375829      -5.03509917
N        5.92303725       5.23744197      -5.58902920
N        5.36748021       4.10782384      -5.08986074
C        5.94814934       2.87367339      -5.60783134
C        7.21408670       2.47311679      -4.88252263
C        7.12289638       1.77234059      -3.66520827
C        8.27066296       1.37166148      -2.97654635
C        9.52664907       1.67422027      -3.49051336
Cl      10.93867780       1.16949618      -2.64797070
C        9.64611330       2.37668579      -4.68411468
C        8.49771607       2.77530514      -5.37666930
Cl       8.74399194       3.61805895      -6.86616586
C        5.62151485       7.65025391      -5.30468263
C        6.60846919       7.95878643      -6.25556574
C        6.97502503       9.28458370      -6.50985117
C        6.35681823      10.31669858      -5.81074142
Br       6.85380159      12.10959040      -6.14306493
C        5.37547223      10.03547833      -4.86404776
C        5.01004049       8.70737115      -4.61271099
H        2.59919725       0.14127569      -2.91288658
H        3.96865558       1.49872891      -4.32992852
H        2.58708986       5.02992043      -2.23682338
H        1.15932493       3.63500124      -0.87231719
H        3.53066833       6.33638474      -3.64949374
H        6.12976942       3.03347662      -6.67736787
H        5.21475424       2.07487874      -5.60157682
H        6.15644824       1.52662682      -3.23327991
H        8.17586630       0.82567409      -2.04096238
H       10.63120823       2.61189445      -5.07909524
H        7.10556126       7.16050652      -6.80556578
H        7.74428142       9.49354580      -7.24896161
H        4.89173504      10.83722568      -4.31249364
H        4.24855248       8.52080820      -3.86134738
C       -1.79011226      -1.79011226      -1.79011226
C       -3.13091894      -1.96717557      -1.48033402
C       -3.94528592      -2.77686228      -2.29226905
C       -3.44119752      -3.45239483      -3.41023005
C       -2.07336020      -3.23722927      -3.69330267
C       -1.25675528      -2.41499902      -2.90430134
C       -4.22108616      -4.35389963      -4.30431860
C       -3.78736155      -4.87858633      -5.52348354
C       -4.78544988      -5.74164507      -6.02220492
N       -5.82877595      -5.72924180      -5.19149067
N       -5.48405797      -4.91645267      -4.16465416
C       -6.52349757      -4.75200748      -3.15414902
C       -6.54341021      -5.88014619      -2.14616972
C       -5.65348144      -5.85094607      -1.05601774
C       -5.65535594      -6.86678540      -0.09672945
C       -6.54095910      -7.93169278      -0.21873081
Cl      -6.55063024      -9.17514088       0.96962644
C       -7.42184855      -7.99268288      -1.29238236
C       -7.42364747      -6.97433397      -2.25170908
Cl      -8.57333187      -7.12002073      -3.53486413
C       -4.77504634      -6.56379480      -7.23761026
C       -5.92260696      -7.27577791      -7.62443650
C       -5.92129557      -8.07726160      -8.77090273
C       -4.76698242      -8.17560387      -9.54167195
Br      -4.75579057      -9.26383214     -11.08683420
C       -3.61767360      -7.47875296      -9.17857176
C       -3.62265270      -6.67643434      -8.03103559
H       -3.56423428      -1.47740511      -0.61172012
H       -4.97811377      -2.82837110      -1.99082814
H       -1.59477877      -3.71287470      -4.54618020
H       -0.21227684      -2.28104031      -3.17332620
H       -2.84028524      -4.67643063      -5.99983094
H       -7.47688456      -4.67354962      -3.69017973
H       -6.43555672      -3.78564719      -2.67000588
H       -4.94425531      -5.03640292      -0.93569674
H       -4.96309181      -6.81992742       0.74051645
H       -8.11002302      -8.82932918      -1.38284571
H       -6.83136508      -7.21342943      -7.02683905
H       -6.82288679      -8.61952551      -9.04437653
H       -2.71220916      -7.55451326      -9.77473193
H       -2.70743200      -6.15374634      -7.76952972
C       -1.79011226       1.79011226       1.79011226
C       -1.25968665       2.91676548       2.40197639
C       -2.07045789       3.73146075       3.21249861
C       -3.41543165       3.43000894       3.45838180
C       -3.91599918       2.27882055       2.80907241
C       -3.12359308       1.47124326       1.98121930
C       -4.33640939       4.21579195       4.32710304
C       -5.71800148       4.04144844       4.42998151
C       -6.21135061       4.92762746       5.41032180
N       -5.20521966       5.67015699       5.87413177
N       -4.09083441       5.23414734       5.24018306
C       -2.87457271       5.95520719       5.59987418
C       -2.24754991       5.44384096       6.87833525
C       -1.41397284       4.31043121       6.83604121
C       -0.80459862       3.82036145       7.99391072
C       -1.02748623       4.45108933       9.21280714
Cl      -0.26677190       3.85411024      10.63526253
C       -1.85659985       5.56448603       9.28582790
C       -2.46450278       6.05854348       8.12664424
Cl      -3.45495233       7.46393348       8.30933093
C       -7.58165449       5.08314752       5.91164939
C       -7.89528737       6.11012947       6.81740453
C       -9.19336403       6.25913435       7.31696152
C      -10.19188738       5.37730164       6.91506921
Br     -11.94569827       5.56757841       7.59318024
C       -9.90508041       4.35211113       6.01780679
C       -8.60497177       4.20641161       5.51873924
H       -0.21557330       3.18228393       2.25550229
H       -1.57917404       4.59998789       3.61815108
H       -4.95124251       1.96962669       2.93296447
H       -3.56380309       0.60056290       1.50227736
H       -6.31147874       3.33520636       3.86986171
H       -3.14621886       7.01456896       5.67982609
H       -2.16804429       5.94591619       4.77724932
H       -1.22516925       3.79061340       5.90057232
H       -0.15940345       2.94698357       7.93611576
H       -2.02832881       6.05139326      10.24247584
H       -7.12204337       6.80370297       7.14588722
H       -9.40649376       7.06109826       8.01919681
H      -10.68005947       3.65829681       5.70309807
H       -8.41151853       3.39084867       4.82834086
C        1.79011226      -1.79011226       1.79011226
C        1.98052313      -3.12689685       1.47100854
C        2.79398600      -3.94012595       2.28030531
C        3.41080580      -3.45372974       3.43928685
C        3.19660446      -2.08560188       3.72168580
C        2.40592837      -1.25948858       2.91063868
C        4.25932721      -4.24958414       4.37039303
C        5.03279512      -3.74089304       5.41574325
C        5.62496172      -4.82061066       6.10372749
N        5.29133316      -5.96073315       5.49744211
N        4.46777578      -5.61926003       4.47812899
C        4.01409796      -6.74585554       3.66970057
C        2.82880701      -7.46288553       4.27803359
C        1.53214845      -6.95488636       4.07341044
C        0.41301068      -7.60010420       4.60575591
C        0.57502363      -8.75778106       5.35857800
Cl      -0.80455800      -9.55786289       6.00283979
C        1.84515171      -9.27431490       5.58744716
C        2.96639485      -8.63137983       5.05191582
Cl       4.50194063      -9.36225106       5.36402505
C        6.47735523      -4.80109361       7.29800257
C        7.06783753      -5.98526668       7.76971716
C        7.86820269      -5.98429233       8.91696487
C        8.08350001      -4.79473654       9.60602169
Br       9.15646484      -4.78814410      11.16184798
C        7.50931216      -3.60846505       9.15722112
C        6.70962272      -3.61265188       8.00784803
H        1.50781913      -3.55506948       0.59047091
H        2.90770401      -4.95420799       1.93540101
H        3.64187108      -1.61617464       4.59578795
H        2.28106318      -0.21226995       3.17331023
H        5.14677102      -2.69855522       5.67122058
H        4.87330045      -7.41669264       3.55062082
H        3.80977862      -6.42828508       2.65314610
H        1.37217845      -6.04841442       3.49576209
H       -0.57967417      -7.19285081       4.42932613
H        1.96476854     -10.17855546       6.17887391
H        6.90246863      -6.92506846       7.24409647
H        8.30974516      -6.91623445       9.26080922
H        7.67108966      -2.67708061       9.69328409
H        6.26824895      -2.67292835       7.68953076
C       -0.00445707       0.01189536      -1.78238275
H       -0.66409135       0.67374010      -2.43557963
H        0.65740317      -0.63156657      -2.45157240
C       -0.90989263      -0.90692880      -0.91072765
C        0.90977584       0.90977584      -0.90977584
C       -0.00465871       1.77757030       0.00794375
H       -0.66225468       2.44313916      -0.64384735
H        0.64322798       2.43503045       0.67728295
C       -1.78241447       0.00034974      -0.00472694
H       -2.45427497      -0.65498947       0.64260836
H       -2.43311707       0.67328779      -0.65473579
C       -0.91132561       0.90220522       0.91563759
C       -0.01476271      -0.02253852       1.78660255
H       -0.67934791      -0.69751639       2.42135241
H        0.63392994       0.61504881       2.47327442
C        0.01484550      -1.77751727      -0.01636693
H        0.67870853      -2.42144646      -0.68295456
H       -0.62264859      -2.45592969       0.64226336
C        1.78714474       0.01002794       0.00389507
H        2.44202412       0.67113390       0.66197326
H        2.45385902      -0.65136977      -0.64189061
C        0.91606151      -0.90478549       0.90901405
