186
Properties=species:S:1:pos:R:3 pbc="F F F"
C        1.79134292       1.79134292      -1.79134292
C        2.00911088       3.12211002      -1.44364034
C        2.81807211       3.92599072      -2.25326238
C        3.41704876       3.41060182      -3.41486908
C        3.16492695       2.07344146      -3.75799777
C        2.36251714       1.26373134      -2.94569550
C        4.23061665       4.28232164      -4.27245321
N        3.94186215       5.58570622      -4.36372493
N        4.72404074       6.06575774      -5.36144533
C        4.44393185       7.37313991      -5.85567811
C        3.89172219       8.32371332      -4.98457626
C        3.62347193       9.61867456      -5.43479800
C        3.86391964       9.97809295      -6.76763066
C        3.57075321      11.38204320      -7.21579122
C        4.39108856       9.01121260      -7.63858838
Cl       4.70618690       9.36983348      -9.30010833
C        4.67897362       7.71531748      -7.19004270
C        5.69561013       5.14573417      -5.75692679
C        6.84415913       5.41606950      -6.63974022
C        7.60711677       6.58955975      -6.50975932
C        8.67855216       6.84978291      -7.36927706
C        9.02810149       5.91779978      -8.34127163
Br      10.48593754       6.26056298      -9.49320200
C        8.30997547       4.73418132      -8.46678004
C        7.21482590       4.49087078      -7.62918687
C        5.37592850       3.98640061      -5.06029516
Cl       6.23488783       2.51046261      -5.06557723
H        1.55304349       3.54594432      -0.55313005
H        2.97060690       4.96799370      -1.97619940
H        3.56518897       1.64354007      -4.67256115
H        2.18491408       0.23216776      -3.22998434
H        3.69568810       8.07868265      -3.94145372
H        3.22530375      10.34680000      -4.72956936
H        3.02723233      11.94096910      -6.44687509
H        2.94296286      11.38134892      -8.11253228
H        4.50453790      11.91497393      -7.42124263
H        5.04201083       6.98532059      -7.90605032
H        7.37093405       7.32578925      -5.74293627
H        9.23195160       7.77938810      -7.26859000
H        8.58675898       3.99175695      -9.21337059
H        6.66105892       3.56655686      -7.76245559
C       -1.79134292      -1.79134292      -1.79134292
C       -1.75766891      -3.17544816      -1.64174416
C       -2.56745957      -3.97935750      -2.45050814
C       -3.41760096      -3.41106583      -3.41385287
C       -3.41789563      -2.01567469      -3.56279585
C       -2.61488043      -1.20754199      -2.74952155
C       -4.23022523      -4.27514917      -4.28001711
N       -3.77886522      -5.48636708      -4.62606099
N       -4.63958298      -5.94314853      -5.56851229
C       -4.26289027      -7.10260293      -6.30725667
C       -3.44488143      -8.06219425      -5.69293608
C       -3.07422651      -9.21772859      -6.38498938
C       -3.47889396      -9.41949697      -7.71125232
C       -3.06813756     -10.67755911      -8.42289096
C       -4.27475146      -8.43986075      -8.32627733
Cl      -4.80687022      -8.60665145      -9.96260704
C       -4.66497878      -7.28643227      -7.63292276
C       -5.78368948      -5.15027984      -5.66430177
C       -7.01262872      -5.47940507      -6.40793506
C       -7.56939897      -6.76954085      -6.36749602
C       -8.72065181      -7.07931557      -7.09764476
C       -9.35496793      -6.08997735      -7.84222762
Br     -10.92009752      -6.50292295      -8.81668206
C       -8.84264408      -4.79802229      -7.87027046
C       -7.66948564      -4.49771558      -7.16768233
C       -5.52049876      -4.06456676      -4.83755875
Cl      -6.56879555      -2.76578610      -4.47634602
H       -1.10490815      -3.63966451      -0.90754520
H       -2.52274860      -5.06082576      -2.33122565
H       -4.02104091      -1.53287856      -4.32737073
H       -2.63484503      -0.13108261      -2.88113853
H       -3.11537373      -7.93837194      -4.66207880
H       -2.46556753      -9.96225650      -5.87384909
H       -2.33104197     -11.24188977      -7.84214478
H       -2.60420161     -10.44575216      -9.38689029
H       -3.93799071     -11.32333930      -8.57942445
H       -5.24140424      -6.53272717      -8.15925033
H       -7.10746848      -7.55755672      -5.77463436
H       -9.11232076      -8.09254805      -7.07506090
H       -9.34172219      -4.01355763      -8.43660671
H       -7.28210908      -3.48496941      -7.22299287
C       -1.79134292       1.79134292       1.79134292
C       -2.54036814       1.21844827       2.81604482
C       -3.34582728       2.02955481       3.62194313
C       -3.41091201       3.41747036       3.41413729
C       -2.66554835       3.96967694       2.36114089
C       -1.85202560       3.16208528       1.55783309
C       -4.29349350       4.24580065       4.24609736
N       -5.43150765       3.73228632       4.72749932
N       -6.10427155       4.77638598       5.27058628
C       -7.46853927       4.57359194       5.63061866
C       -7.88299842       3.29273354       6.02427981
C       -9.20928294       3.06705565       6.40060589
C      -10.15307958       4.10174915       6.35481451
C      -11.56933732       3.82531019       6.77394012
C       -9.73420037       5.37372262       5.93296655
Cl     -10.83761209       6.70108824       5.83742838
C       -8.40179975       5.61199198       5.57054207
C       -5.31084829       5.92002162       5.36740118
C       -5.64092859       7.14977178       6.10926848
C       -6.21601817       7.09942536       7.39099231
C       -6.55024137       8.27143641       8.07593436
C       -6.27202055       9.50953342       7.50561894
Br      -6.70830913      11.09448259       8.43691080
C       -5.67221653       9.58488689       6.25383341
C       -5.37084393       8.41082345       5.55321617
C       -4.13971785       5.58430650       4.69859992
Cl      -2.74008379       6.54697276       4.52387111
H       -2.51136257       0.14691282       2.99384247
H       -3.93543347       1.56722374       4.41214279
H       -2.72145075       5.03020926       2.12963019
H       -1.28252948       3.61249177       0.75204492
H       -7.17452821       2.46682506       6.07447120
H       -9.49743467       2.07090620       6.73333224
H      -11.73976050       2.75376378       6.92155225
H      -12.27459048       4.15699390       6.00525968
H      -11.78908094       4.33343300       7.71824052
H       -8.12961811       6.59725944       5.20650419
H       -6.42346268       6.14455531       7.87164157
H       -7.02356625       8.20469176       9.05167170
H       -5.43558391      10.54910692       5.80719570
H       -4.91994452       8.50048813       4.56963872
C        1.79134292      -1.79134292       1.79134292
C        2.62932747      -1.20751737       2.73801639
C        3.43450092      -2.01858147       3.54424283
C        3.41073868      -3.41727139       3.41450959
C        2.57589324      -3.98224909       2.43822385
C        1.76263962      -3.17407516       1.63522919
C        4.29335690      -4.24856734       4.24346727
N        5.48409811      -3.77657951       4.63061567
N        6.12882450      -4.82662940       5.19578990
C        7.52087788      -4.68425246       5.46761952
C        8.02758006      -3.41001176       5.76241995
C        9.38398512      -3.24171016       6.05124921
C       10.26502495      -4.33066268       6.01395562
C       11.71640863      -4.11465470       6.33752430
C        9.75276197      -5.59734303       5.69078454
Cl      10.77386491      -6.99007962       5.61218417
C        8.39037763      -5.77707223       5.41688394
C        5.28056685      -5.91493812       5.40276611
C        5.58508089      -7.11908452       6.19580344
C        6.23588311      -7.03180237       7.43875036
C        6.54438783      -8.18177583       8.17144848
C        6.16553318      -9.43108143       7.69055829
Br       6.56738552     -10.98503588       8.68728112
C        5.49046475      -9.54019737       6.48027472
C        5.21390305      -8.39095920       5.73002130
C        4.09269572      -5.54883534       4.78109320
Cl       2.63431429      -6.43635337       4.74026001
H        2.66986047      -0.12794610       2.85431129
H        4.09380191      -1.54858727       4.27241082
H        2.55964248      -5.05538325       2.26626446
H        1.12313150      -3.63421611       0.88971856
H        7.36985441      -2.54266004       5.80331002
H        9.74553677      -2.24724821       6.30888813
H       11.95396596      -3.04837390       6.41273666
H       12.35624601      -4.52879658       5.55180147
H       11.96253544      -4.58190468       7.29631433
H        8.04351728      -6.76334531       5.12651915
H        6.52334424      -6.06562260       7.85069271
H        7.07680233      -8.08907795       9.11404943
H        5.17537895     -10.51211878       6.10438879
H        4.70212064      -8.50824395       4.77970677
C       -0.00445707       0.01189536      -1.78238275
H       -0.66409135       0.67374010      -2.43557963
H        0.65740317      -0.63156657      -2.45157240
C       -0.90989263      -0.90692880      -0.91072765
C        0.90977584       0.90977584      -0.90977584
C       -0.00465871       1.77757030       0.00794375
H       -0.66225468       2.44313916      -0.64384735
H        0.64322798       2.43503045       0.67728295
C       -1.78241447       0.00034974      -0.00472694
H       -2.45427497      -0.65498947       0.64260836
H       -2.43311707       0.67328779      -0.65473579
C       -0.91132561       0.90220522       0.91563759
C       -0.01476271      -0.02253852       1.78660255
H       -0.67934791      -0.69751639       2.42135241
H        0.63392994       0.61504881       2.47327442
C        0.01484550      -1.77751727      -0.01636693
H        0.67870853      -2.42144646      -0.68295456
H       -0.62264859      -2.45592969       0.64226336
C        1.78714474       0.01002794       0.00389507
H        2.44202412       0.67113390       0.66197326
H        2.45385902      -0.65136977      -0.64189061
C        0.91606151      -0.90478549       0.90901405
