194
Properties=species:S:1:pos:R:3 pbc="F F F"
C        1.79134292       1.79134292      -1.79134292
C        2.00911088       3.12211002      -1.44364034
C        2.81807211       3.92599072      -2.25326238
C        3.41704876       3.41060182      -3.41486908
C        3.16492695       2.07344146      -3.75799777
C        2.36251714       1.26373134      -2.94569550
C        4.23061665       4.28232164      -4.27245321
N        3.94186215       5.58570622      -4.36372493
N        4.72404074       6.06575774      -5.36144533
C        4.44393185       7.37313991      -5.85567811
C        3.89172219       8.32371332      -4.98457626
C        3.62347193       9.61867456      -5.43479800
C        3.86391964       9.97809295      -6.76763066
C        3.57075321      11.38204320      -7.21579122
C        4.39108856       9.01121260      -7.63858838
Cl       4.70618690       9.36983348      -9.30010833
C        4.67897362       7.71531748      -7.19004270
C        5.69561013       5.14573417      -5.75692679
C        6.84415913       5.41606950      -6.63974022
C        7.60711677       6.58955975      -6.50975932
C        8.67855216       6.84978291      -7.36927706
C        9.02810149       5.91779978      -8.34127163
C        8.30997547       4.73418132      -8.46678004
C        7.21482590       4.49087078      -7.62918687
C        5.37592850       3.98640061      -5.06029516
Cl       6.23488783       2.51046261      -5.06557723
H        1.55304349       3.54594432      -0.55313005
H        2.97060690       4.96799370      -1.97619940
H        3.56518897       1.64354007      -4.67256115
H        2.18491408       0.23216776      -3.22998434
H        3.69568810       8.07868265      -3.94145372
H        3.22530375      10.34680000      -4.72956936
H        3.02723233      11.94096910      -6.44687509
H        2.94296286      11.38134892      -8.11253228
H        4.50453790      11.91497393      -7.42124263
H        5.04201083       6.98532059      -7.90605032
H        7.37093405       7.32578925      -5.74293627
H        9.23195160       7.77938810      -7.26859000
H        8.58675898       3.99175695      -9.21337059
H        6.66105892       3.56655686      -7.76245559
C       10.13920454       6.17903988      -9.21922586
C       11.06975333       6.39782846      -9.95451254
Br      12.57437203       6.75159110     -11.14340890
C       -1.79134292      -1.79134292      -1.79134292
C       -1.79993768      -3.17119381      -1.60372975
C       -2.60959352      -3.97507916      -2.41265254
C       -3.41752121      -3.41096718      -3.41403128
C       -3.37527786      -2.02071768      -3.60037065
C       -2.57239703      -1.21230546      -2.78724148
C       -4.23012777      -4.27649086      -4.27877288
N       -3.80325269      -5.50849515      -4.57954546
N       -4.65061887      -5.96783376      -5.53279118
C       -4.28637293      -7.15695126      -6.22942568
C       -3.51198062      -8.12084744      -5.56718371
C       -3.15491448      -9.30459611      -6.21743389
C       -3.52921227      -9.53196602      -7.54846495
C       -3.13437953     -10.81978489      -8.21442322
C       -4.28089720      -8.54865457      -8.21133777
Cl      -4.77325317      -8.74621054      -9.85666499
C       -4.65761433      -7.36644827      -7.56027120
C       -5.76940555      -5.14745325      -5.68141229
C       -6.98653728      -5.46384452      -6.44958705
C       -7.57960923      -6.73694307      -6.38988355
C       -8.71894024      -7.03571351      -7.14295839
C       -9.30545419      -6.05062629      -7.93109243
C       -8.75707851      -4.77417305      -7.97968527
C       -7.59537899      -4.48621338      -7.25329118
C       -5.49864455      -4.04678795      -4.87719176
Cl      -6.52000258      -2.71082533      -4.58009976
H       -1.18021195      -3.63233159      -0.83957432
H       -2.59798716      -5.05365165      -2.26316119
H       -3.94409555      -1.54318611      -4.39400854
H       -2.55908223      -0.13974378      -2.94824016
H       -3.20700076      -7.97750386      -4.53131985
H       -2.58100453     -10.05081211      -5.66985647
H       -2.42902257     -11.38746675      -7.59858721
H       -2.63848063     -10.62723949      -9.17112394
H       -4.01721397     -11.44603241      -8.37750808
H       -5.19865313      -6.61234754      -8.12238108
H       -7.15571589      -7.52041482      -5.76352885
H       -9.13890670      -8.03704432      -7.10397869
H       -9.21890277      -3.99251907      -8.58046468
H       -7.17883569      -3.48615694      -7.32507873
C      -10.48617908      -6.35357630      -8.69771490
C      -11.47503618      -6.60729693      -9.33976122
Br     -13.07393447      -7.01754174     -10.37789582
C       -1.79134292       1.79134292       1.79134292
C       -2.54238252       1.21810286       2.81437586
C       -3.34783509       2.02920883       3.62028130
C       -3.41090782       3.41746628       3.41414557
C       -2.66352013       3.97005861       2.36278744
C       -1.85000281       3.16245405       1.55948711
C       -4.29349380       4.24586047       4.24603724
N       -5.43276111       3.73317650       4.72535569
N       -6.10489321       4.77743905       5.26891155
C       -7.46986884       4.57591344       5.62696759
C       -7.88643887       3.29508395       6.01848894
C       -9.21348076       3.07060606       6.39285766
C      -10.15591377       4.10654689       6.34718258
C      -11.57304675       3.83136763       6.76417326
C       -9.73489931       5.37852142       5.92746881
Cl     -10.83651540       6.70739809       5.83221522
C       -8.40174299       5.61556552       5.56702529
C       -5.31015174       5.91994936       5.36816998
C       -5.63961767       7.14917898       6.11117220
C       -6.21638759       7.09794277       7.39210547
C       -6.54999735       8.26951037       8.07810442
C       -6.26949636       9.50797318       7.50970336
C       -5.66801831       9.58414747       6.25877105
C       -5.36724190       8.41058871       5.55705294
C       -4.13860221       5.58359967       4.70042239
Cl      -2.73753629       6.54471805       4.52867332
H       -2.51495220       0.14630836       2.99085730
H       -3.93902055       1.56662656       4.40915288
H       -2.71779332       5.03095164       2.13254524
H       -1.27892274       3.61315679       0.75498664
H       -7.17907428       2.46821929       6.06853090
H       -9.50330776       2.07440246       6.72396289
H      -11.74500678       2.75985194       6.91021781
H      -12.27691044       4.16490998       5.99502364
H      -11.79334137       4.33857660       7.70883649
H       -8.12786027       6.60094678       5.20457470
H       -6.42564216       6.14273017       7.87128723
H       -7.02463719       8.20213324       9.05315929
H       -5.42960681      10.54863032       5.81364939
H       -4.91498870       8.50092403       4.57415863
C       -6.60139026      10.71547966       8.22060035
C       -6.87935141      11.72676634       8.81597659
Br      -7.32879107      13.36193137       9.77864960
C        1.79134292      -1.79134292       1.79134292
C        2.64005428      -1.20682625       2.72798070
C        3.44519389      -2.01788268       3.53424865
C        3.41071952      -3.41724466       3.41455549
C        2.56507024      -3.98314398       2.44815196
C        1.75185341      -3.17489794       1.64519262
C        4.29331870      -4.24891904       4.24315376
N        5.49003862      -3.78264271       4.61861197
N        6.13136443      -4.83322985       5.18664953
C        7.52626405      -4.69877612       5.44770970
C        8.04394719      -3.42610785       5.72995673
C        9.40350177      -3.26536018       6.00808254
C       10.27660664      -4.36073552       5.97230108
C       11.73171443      -4.15271051       6.28416269
C        9.75321580      -5.62600333       5.66167041
Cl      10.76395739      -7.02642519       5.58574613
C        8.38770749      -5.79803128       5.39859503
C        5.27698503      -5.91405074       5.40723532
C        5.57864331      -7.11473048       6.20659506
C        6.23879331      -7.02333672       7.44430582
C        6.54439589      -8.17029703       8.18291921
C        6.15341585      -9.42023695       7.71352011
C        5.46907832      -9.53306342       6.50879510
C        5.19528817      -8.38718668       5.75240870
C        4.08735156      -5.54394102       4.79133168
Cl       2.62253691      -6.42141291       4.76697785
H        2.68896830      -0.12677961       2.83636995
H        4.11289165      -1.54746186       4.25444649
H        2.54008967      -5.05731508       2.28388544
H        1.10389423      -3.63572711       0.90744483
H        7.39261847      -2.55387255       5.76933345
H        9.77381949      -2.27169317       6.25616045
H       11.97726011      -3.08763141       6.35018501
H       12.36307608      -4.57684986       5.49691812
H       11.98131980      -4.61495722       7.24447744
H        8.03190684      -6.78384271       5.11763219
H        6.53591460      -6.05634689       7.84739807
H        7.08408314      -8.07475662       9.12108996
H        5.14454787     -10.50534714       6.14199152
H        4.67600535      -8.50751234       4.80655366
C        6.45673858     -10.60137806       8.47935364
C        6.71077137     -11.59058373       9.12073923
Br       7.12152091     -13.19004565      10.15780548
C       -0.00445707       0.01189536      -1.78238275
H       -0.66409135       0.67374010      -2.43557963
H        0.65740317      -0.63156657      -2.45157240
C       -0.90989263      -0.90692880      -0.91072765
C        0.90977584       0.90977584      -0.90977584
C       -0.00465871       1.77757030       0.00794375
H       -0.66225468       2.44313916      -0.64384735
H        0.64322798       2.43503045       0.67728295
C       -1.78241447       0.00034974      -0.00472694
H       -2.45427497      -0.65498947       0.64260836
H       -2.43311707       0.67328779      -0.65473579
C       -0.91132561       0.90220522       0.91563759
C       -0.01476271      -0.02253852       1.78660255
H       -0.67934791      -0.69751639       2.42135241
H        0.63392994       0.61504881       2.47327442
C        0.01484550      -1.77751727      -0.01636693
H        0.67870853      -2.42144646      -0.68295456
H       -0.62264859      -2.45592969       0.64226336
C        1.78714474       0.01002794       0.00389507
H        2.44202412       0.67113390       0.66197326
H        2.45385902      -0.65136977      -0.64189061
C        0.91606151      -0.90478549       0.90901405
