173
Properties=species:S:1:pos:R:3 pbc="F F F"
C        0.00000000       0.00000000       0.00000000
C        0.88291079       0.88291079      -0.88291079
C        1.55847007       1.96536865      -0.31996098
C        2.36901684       2.76626550      -1.12744397
C        2.50319165       2.48783971      -2.49293161
C        1.81580176       1.40078794      -3.04483436
C        1.00487876       0.59635714      -2.24212444
C        3.38595712       3.30179398      -3.33267137
C        4.71659841       3.09436878      -3.43316290
C        5.58678025       2.08071938      -2.78962023
C        5.18488903       4.12440639      -4.35895629
C        6.55786642       4.64481653      -4.46746251
C        7.60688509       3.80329419      -4.86248649
C        8.91527440       4.28522899      -4.95395633
C        9.18072018       5.61740732      -4.64485456
C        8.15414813       6.46885371      -4.24231897
C        6.84825837       5.97912602      -4.15034496
N        4.05216206       4.83074338      -4.77716548
N        2.82594794       4.30176393      -4.05861259
C        3.91755275       5.81091768      -5.79569017
C        3.02568762       6.87815472      -5.55033173
C        2.82301143       7.89178189      -6.48407921
Cl       1.72783349       9.17771253      -6.14416121
C        3.50102747       7.87412125      -7.69678167
C        4.36861447       6.82029405      -7.97740900
C        4.56897288       5.78682032      -7.04560462
Cl       5.53255873       4.46103677      -7.61073865
H        1.46399094       2.19815221       0.73536139
H        2.89923879       3.61701125      -0.70695259
H        1.91985122       1.19702695      -4.10767970
H        0.47880015      -0.24027622      -2.68941701
H        6.06107772       1.44721637      -3.54676350
H        5.02775065       1.41629226      -2.12276542
H        6.37041778       2.55879921      -2.19299398
H        7.39417881       2.76984382      -5.12304939
H        9.70783322       3.61530169      -5.27119228
H        8.34994032       7.50791907      -3.99784121
H        6.04099109       6.63474256      -3.82826358
H        2.49469589       6.89560163      -4.60110997
H        3.34368123       8.65736430      -8.43108880
H        4.87126239       6.78614478      -8.93987448
C       10.52742768       6.11761181      -4.74372005
C       11.65529520       6.53653308      -4.82651990
Br      13.47896160       7.21389333      -4.96040024
C       -0.88291079      -0.88291079      -0.88291079
C       -1.76744548      -0.29172183      -1.78463239
C       -2.56807306      -1.10054522      -2.59410804
C       -2.48658721      -2.49517539      -2.50220037
C       -1.59742888      -3.07434340      -1.58965178
C       -0.79412056      -2.27060450      -0.77863529
C       -3.29538074      -3.34491108      -3.38013064
C       -2.93152762      -3.67438210      -4.63822036
C       -1.72520868      -3.31143999      -5.42047118
C       -4.01995446      -4.51637559      -5.13192167
C       -4.36451090      -4.76385382      -6.54178074
C       -3.46200878      -5.42258964      -7.38806735
C       -3.77482605      -5.64859257      -8.73104111
C       -4.99703345      -5.21020222      -9.23574640
C       -5.90513450      -4.54623144      -8.41395486
C       -5.58427755      -4.32114852      -7.07230328
N       -4.92558056      -4.65913917      -4.07535118
N       -4.45986382      -3.83781917      -2.88864147
C       -6.05915051      -5.50629296      -3.95871713
C       -7.18480391      -4.98830431      -3.28106584
C       -8.34717067      -5.73759156      -3.11411029
Cl      -9.69943264      -5.06694746      -2.28332714
C       -8.42570929      -7.03130227      -3.61491882
C       -7.32179801      -7.57834102      -4.26617848
C       -6.14059911      -6.83322849      -4.42757023
Cl      -4.80118412      -7.70957037      -5.09357968
H       -1.84643937       0.78704220      -1.86738459
H       -3.26671850      -0.65729452      -3.29918961
H       -1.54674206      -4.15809848      -1.51971733
H       -0.11284834      -2.73886860      -0.07622399
H       -1.15789120      -4.20933820      -5.68782820
H       -1.04646206      -2.66076272      -4.85958356
H       -1.99840632      -2.78379023      -6.34001442
H       -2.51794598      -5.78198181      -6.98714424
H       -3.06240741      -6.16919831      -9.36272146
H       -6.85939582      -4.19926065      -8.79704413
H       -6.28388638      -3.79544079      -6.42467006
H       -7.12691551      -3.97515142      -2.88934056
H       -9.32593952      -7.62269756      -3.48349724
H       -7.36910683      -8.60233714      -4.62583768
C       -5.32380335      -5.44689335     -10.61806283
C       -5.59747315      -5.64512218     -11.77575285
Br      -6.03997406      -5.96564142     -13.64763969
C       -0.88291079       0.88291079       0.88291079
C       -2.19138747       1.16270706       0.48970517
C       -2.99744659       1.96421462       1.30106511
C       -2.49779952       2.48575184       2.50041160
C       -1.18134879       2.20004365       2.88003162
C       -0.37144926       1.39869650       2.07321459
C       -3.35543512       3.29203052       3.37295682
C       -4.21145798       2.76055520       4.27211690
C       -4.50260584       1.34601366       4.60850036
C       -4.85042784       3.91361246       4.90421141
C       -6.14931404       3.92346432       5.59736710
C       -6.33658461       3.17104817       6.76503299
C       -7.57028977       3.16307411       7.42109584
C       -8.62807307       3.90899049       6.90591850
C       -8.46585444       4.65736406       5.74210230
C       -7.22977671       4.65834660       5.08960604
N       -4.25923336       5.05288634       4.34795122
N       -3.26438955       4.64240906       3.27952584
C       -4.38378404       6.41648933       4.72388723
C       -4.39504187       7.37366272       3.68546948
C       -4.51461421       8.73649255       3.94776576
Cl      -4.52699671       9.87132024       2.65139029
C       -4.62399970       9.19204855       5.25588214
C       -4.59055464       8.27292813       6.30283474
C       -4.45732515       6.89694275       6.04712993
Cl      -4.24971119       5.90259361       7.45202936
H       -2.59451229       0.76995734      -0.43768787
H       -4.01815828       2.19682315       1.00822120
H       -0.79950820       2.61591368       3.80913599
H        0.64680662       1.19064216       2.38410539
H       -4.25586763       1.14307905       5.65611092
H       -3.91868520       0.64601577       4.00210736
H       -5.56044116       1.11448893       4.44728088
H       -5.50412829       2.60639770       7.17654603
H       -7.68629165       2.57945683       8.32857870
H       -9.28348896       5.24088563       5.33132602
H       -7.09609262       5.23315886       4.17474575
H       -4.31126383       7.01991769       2.66022597
H       -4.71168980      10.25262799       5.46781654
H       -4.63911041       8.63075805       7.32741319
C       -9.89873951       3.90660532       7.58341471
C      -10.96292265       3.90460774       8.15081779
Br     -12.68361678       3.90137782       9.06826058
C        0.88291079      -0.88291079       0.88291079
C        0.31800398      -1.56651349       1.95928223
C        1.12553416      -2.37702787       2.76016429
C        2.49300681      -2.50316642       2.48778973
C        3.04683121      -1.80776479       1.40682806
C        2.24408940      -0.99683354       0.60243740
C        3.33308357      -3.38580434       3.30153455
C        3.44111415      -4.71490539       3.08811054
C        2.80680552      -5.58323506       2.06707928
C        4.36415386      -5.18371844       4.12037941
C        4.47685302      -6.55868652       4.63460592
C        4.88112320      -7.60162249       3.78992008
C        4.97665734      -8.91189844       4.26590394
C        4.66236104      -9.18538329       5.59523774
C        4.25064110      -8.16497877       6.44970093
C        4.15465311      -6.85716655       5.96590969
N        4.77334670      -4.05244230       4.83428191
N        4.05137741      -2.82717048       4.30777657
C        5.78640086      -3.91767245       5.82008729
C        5.53146164      -3.03226298       6.89044944
C        6.45924332      -2.83000594       7.90962326
Cl       6.10768151      -1.74282322       9.19920250
C        7.67532960      -3.50199809       7.89460270
C        7.96535226      -4.36302361       6.83794164
C        7.03959917      -4.56285607       5.79894259
Cl       7.61592055      -5.51715470       4.47125891
H       -0.73889323      -1.47833136       2.18734363
H        0.70350059      -2.91346430       3.60623774
H        4.11115647      -1.90562269       1.20777872
H        2.69287493      -0.46447875      -0.22941274
H        3.56935083      -6.05071619       1.43499058
H        2.14046789      -5.02421479       1.40212565
H        2.21170422      -6.37211251       2.53839425
H        5.14568204      -7.38257855       2.75881145
H        5.30104525      -9.69960241       3.59367953
H        4.00205663      -8.36705804       7.48658594
H        3.82541761      -6.05470790       6.62387172
H        4.57957217      -2.50600413       6.90583119
H        8.40502296      -3.34491331       8.68219806
H        8.93042763      -4.86079271       6.80606130
C        4.76538945     -10.53403004       6.08934005
C        4.85167575     -11.66352169       6.50315074
Br       4.99119340     -13.48981416       7.17224762
