165
Properties=species:S:1:pos:R:3 pbc="F F F"
C        0.00000000       0.00000000       0.00000000
C        0.88229181       0.88229181      -0.88229181
C        0.34472993       1.47424477      -2.02438318
C        1.15164555       2.28883430      -2.82150266
C        2.49149512       2.51321484      -2.48199707
C        3.02283478       1.89813163      -1.34107821
C        2.21715509       1.08956902      -0.53598465
C        3.33315539       3.37117461      -3.32203474
C        4.34180699       2.93100742      -4.27576148
C        4.54787435       3.99877022      -5.07266553
N        3.84238009       5.13241973      -4.83349544
N        3.02275545       4.69894142      -3.63448683
C        2.25649140       5.64441562      -2.90637195
C        2.00929008       5.52226071      -1.53284024
C        1.27045273       6.48672640      -0.84780866
Cl       0.99091189       6.30829898       0.84453689
C        0.76462088       7.59966692      -1.50964476
C        1.01191461       7.74169972      -2.86991926
Cl       0.39745351       9.11983982      -3.70195554
C        1.75010920       6.78122462      -3.56007495
C        5.50272143       4.02133230      -6.18317715
C        6.82305582       4.43251035      -5.96344300
C        7.73724613       4.46808362      -7.01805242
C        7.32729877       4.08921628      -8.29548739
Br       8.55993263       4.14830662      -9.72973832
C        6.01631681       3.67363731      -8.52841674
C        5.10585768       3.63948210      -7.46978187
C        4.93936658       1.57437163      -4.28583364
H       -0.69269536       1.31794591      -2.30273668
H        0.74544533       2.76565160      -3.71170447
H        4.06113854       2.07434789      -1.07304339
H        2.63952554       0.63591645       0.35558617
H        2.42989158       4.69034976      -0.98259312
H        0.19527763       8.34930263      -0.97234328
H        1.94199738       6.89868818      -4.62405144
H        7.11925880       4.74166977      -4.96415513
H        8.75224562       4.80155461      -6.82955531
H        5.68750691       3.38629895      -9.52161365
H        4.07584255       3.33489880      -7.63617007
H        5.68268513       1.45577017      -5.08016302
H        4.16831891       0.81275922      -4.44183483
H        5.44228659       1.36806874      -3.33520621
C       -0.88229181      -0.88229181      -0.88229181
C       -0.74021591      -0.83473803      -2.26840395
C       -1.54075728      -1.65103164      -3.07019360
C       -2.48124207      -2.51283886      -2.49262611
C       -2.62507774      -2.53755484      -1.09941203
C       -1.82047075      -1.72923454      -0.29300347
C       -3.31756011      -3.36894628      -3.33985836
C       -4.71597820      -3.15023241      -3.68236528
C       -4.92871231      -3.92708248      -4.76351532
N       -3.89789682      -4.66649785      -5.24390059
N       -2.80603980      -4.28638032      -4.26376359
C       -1.56785151      -4.97784136      -4.26158610
C       -0.80374923      -5.15917825      -3.10146356
C        0.39791703      -5.86636331      -3.13654150
Cl       1.30993143      -6.07653560      -1.68806982
C        0.86655991      -6.41633283      -4.32415964
C        0.11371221      -6.25587113      -5.48137466
Cl       0.67847575      -6.93841423      -6.95931039
C       -1.08845371      -5.55037372      -5.45258135
C       -6.21597583      -4.03766583      -5.45358922
C       -7.13761222      -5.01723880      -5.06415816
C       -8.36239798      -5.13755875      -5.72342543
C       -8.66453568      -4.27299987      -6.77446690
Br     -10.31803164      -4.44127278      -7.67867316
C       -7.75781632      -3.28988344      -7.17067109
C       -6.53410740      -3.17352245      -6.50749180
C       -5.61990604      -2.23873079      -2.94093502
H       -0.01365347      -0.17799772      -2.73633603
H       -1.43660163      -1.63266554      -4.15353422
H       -3.35112177      -3.20881574      -0.64859232
H       -1.93130785      -1.77477443       0.78622645
H       -1.16678960      -4.78207839      -2.15396647
H        1.79841361      -6.96948417      -4.34585298
H       -1.67417716      -5.42967045      -6.36088938
H       -6.87660928      -5.69405919      -4.25441522
H       -9.05757870      -5.91109541      -5.41468144
H       -7.98201752      -2.61959034      -7.99381165
H       -5.80835822      -2.42466069      -6.81389251
H       -6.63085719      -2.22800553      -3.35975561
H       -5.24225744      -1.21136435      -2.96929117
H       -5.70406976      -2.54774700      -1.89374479
C       -0.88229181       0.88229181       0.88229181
C       -1.96996908       1.55102031       0.32236849
C       -2.78014291       2.34719081       1.13464879
C       -2.50740709       2.47736259       2.50193735
C       -1.40112100       1.81341429       3.04750933
C       -0.59308169       1.00900799       2.24061908
C       -3.36302896       3.31333384       3.35000194
C       -3.05757804       4.64980262       3.84119523
C       -4.25007684       5.15940125       4.20983202
N       -5.35827718       4.39197926       4.05803883
N       -4.74427936       3.13308032       3.47882403
C       -5.52077490       1.95562535       3.33087873
C       -4.97186706       0.66996788       3.42255609
C       -5.77400207      -0.46388325       3.29486896
Cl      -5.06623828      -2.03150570       3.41994141
C       -7.14245774      -0.34794718       3.07942201
C       -7.70422888       0.92073345       2.99857125
Cl      -9.40025883       1.07982221       2.73916784
C       -6.90770572       2.05788699       3.12581607
C       -4.42942965       6.49578128       4.78201995
C       -4.37255805       6.67716852       6.16928260
C       -4.55358972       7.94531579       6.72447666
C       -4.79070312       9.03428955       5.88700977
Br      -5.04923958      10.75225352       6.63648447
C       -4.84605437       8.86926429       4.50305220
C       -4.66384118       7.59852243       3.95275804
C       -1.69422078       5.23100624       3.87434482
H       -2.20239736       1.45951960      -0.73392974
H       -3.63837354       2.86911783       0.71531003
H       -1.19003966       1.90927208       4.10921808
H        0.24916915       0.48576743       2.68325755
H       -3.91752540       0.54930881       3.63600024
H       -7.76285815      -1.23177027       2.98583566
H       -7.35319895       3.04799914       3.06353891
H       -4.20486138       5.81299483       6.80722748
H       -4.51820690       8.06275026       7.80239838
H       -5.03948580       9.71035458       3.84557915
H       -4.72081518       7.44831704       2.87777920
H       -1.68647822       6.24408771       4.28805239
H       -1.27184527       5.28545411       2.86561359
H       -1.03025087       4.62024410       4.49506657
C        0.88229181      -0.88229181       0.88229181
C        2.15803059      -1.23832988       0.44699740
C        2.96507978      -2.03539146       1.26151127
C        2.50234717      -2.47729279       2.50706709
C        1.21193871      -2.12608913       2.92401678
C        0.40443099      -1.32178801       2.11648976
C        3.35531460      -3.31242887       3.35862126
C        3.24446796      -4.75145036       3.55265756
C        4.43709046      -5.12068958       4.06153007
N        5.38058580      -4.16669391       4.26101556
N        4.63292904      -2.93648771       3.78676695
C        5.17395379      -1.64167218       3.99165300
C        4.37345985      -0.50798900       4.18294219
C        4.94457349       0.74489728       4.40531158
Cl       3.92915967       2.11824698       4.64376129
C        6.32524483       0.90084727       4.44953500
C        7.13301767      -0.21646341       4.27405250
Cl       8.84598902      -0.03957382       4.33368602
C        6.56805417      -1.47152913       4.05182548
C        4.78131684      -6.49590105       4.43001299
C        4.53402651      -6.95572138       5.72926129
C        4.86913608      -8.26135829       6.09288780
C        5.45210046      -9.10837289       5.15152909
Br       5.91935365     -10.87441104       5.64421288
C        5.70062370      -8.66526751       3.85247964
C        5.36305137      -7.35829018       3.49378009
C        2.03702343      -5.54397932       3.21856910
H        2.53830463      -0.90212052      -0.51243793
H        3.96686501      -2.31524132       0.94069507
H        0.85226411      -2.46406827       3.89219745
H       -0.58600983      -1.04266111       2.46320454
H        3.29568063      -0.60727955       4.19987428
H        6.76475261       1.87547869       4.62764962
H        7.20515957      -2.34250702       3.91707040
H        4.09556698      -6.27490462       6.45461209
H        4.68083470      -8.59448379       7.10803705
H        6.16258317      -9.31567138       3.11716497
H        5.56522894      -6.99053137       2.49115111
H        2.16242511      -6.60617140       3.45002182
H        1.80574499      -5.46599429       2.15117369
H        1.17216673      -5.18627364       3.78712117
