173
Properties=species:S:1:pos:R:3 pbc="F F F"
C        0.00000000       0.00000000       0.00000000
C        0.88229181       0.88229181      -0.88229181
C        0.34472993       1.47424477      -2.02438318
C        1.15164555       2.28883430      -2.82150266
C        2.49149512       2.51321484      -2.48199707
C        3.02283478       1.89813163      -1.34107821
C        2.21715509       1.08956902      -0.53598465
C        3.33315539       3.37117461      -3.32203474
C        4.34180699       2.93100742      -4.27576148
C        4.54787435       3.99877022      -5.07266553
N        3.84238009       5.13241973      -4.83349544
N        3.02275545       4.69894142      -3.63448683
C        2.25649140       5.64441562      -2.90637195
C        2.00929008       5.52226071      -1.53284024
C        1.27045273       6.48672640      -0.84780866
Cl       0.99091189       6.30829898       0.84453689
C        0.76462088       7.59966692      -1.50964476
C        1.01191461       7.74169972      -2.86991926
Cl       0.39745351       9.11983982      -3.70195554
C        1.75010920       6.78122462      -3.56007495
C        5.50272143       4.02133230      -6.18317715
C        6.82305582       4.43251035      -5.96344300
C        7.73724613       4.46808362      -7.01805242
C        7.32729877       4.08921628      -8.29548739
C        6.01631681       3.67363731      -8.52841674
C        5.10585768       3.63948210      -7.46978187
C        4.93936658       1.57437163      -4.28583364
H       -0.69269536       1.31794591      -2.30273668
H        0.74544533       2.76565160      -3.71170447
H        4.06113854       2.07434789      -1.07304339
H        2.63952554       0.63591645       0.35558617
H        2.42989158       4.69034976      -0.98259312
H        0.19527763       8.34930263      -0.97234328
H        1.94199738       6.89868818      -4.62405144
H        7.11925880       4.74166977      -4.96415513
H        8.75224562       4.80155461      -6.82955531
H        5.68750691       3.38629895      -9.52161365
H        4.07584255       3.33489880      -7.63617007
H        5.68268513       1.45577017      -5.08016302
H        4.16831891       0.81275922      -4.44183483
H        5.44228659       1.36806874      -3.33520621
C        8.26541767       4.13418808      -9.38705070
C        9.05109225       4.17185197     -10.30123498
Br      10.32146160       4.23275128     -11.77939363
C       -0.88229181      -0.88229181      -0.88229181
C       -0.69660535      -0.88269585      -2.26405668
C       -1.49760394      -1.69901360      -3.06536497
C       -2.48188851      -2.51316648      -2.49165205
C       -2.66883148      -2.48966960      -1.10354353
C       -1.86416266      -1.68129622      -0.29724988
C       -3.31849607      -3.36959807      -3.33827060
C       -4.69825558      -3.11923614      -3.73108417
C       -4.90225514      -3.92284933      -4.79420564
N       -3.88103367      -4.70808088      -5.21918072
N       -2.80814933      -4.33079320      -4.21724118
C       -1.59295581      -5.05926510      -4.15505806
C       -0.87065109      -5.22724353      -2.96649641
C        0.30869667      -5.97148247      -2.94220199
Cl       1.16907548      -6.16371120      -1.46003827
C        0.79579929      -6.57255012      -4.09718173
C        0.08399338      -6.42567849      -5.28184847
Cl       0.67180564      -7.17125052      -6.71980399
C       -1.09571506      -5.68330795      -5.31238576
C       -6.17072571      -4.01578497      -5.52072020
C       -7.13414789      -4.95408044      -5.13078084
C       -8.34144583      -5.05767920      -5.82425714
C       -8.58407264      -4.21778620      -6.91014360
C       -7.63523532      -3.27570892      -7.30742661
C       -6.42925691      -3.17590951      -6.60995523
C       -5.59525769      -2.15774360      -3.04657055
H        0.06417256      -0.26344526      -2.72871452
H       -1.35994819      -1.71790186      -4.14495135
H       -3.42902640      -3.12398071      -0.65552272
H       -2.00922253      -1.68948127       0.77884798
H       -1.25036838      -4.80964846      -2.04281763
H        1.71002839      -7.15425779      -4.07269414
H       -1.64939433      -5.57342492      -6.24191775
H       -6.91935829      -5.61274796      -4.29297744
H       -9.06969197      -5.79957580      -5.51408778
H       -7.81305532      -2.62510548      -8.15725872
H       -5.67131888      -2.45952225      -6.91607029
H       -6.59213523      -2.12938099      -3.49710210
H       -5.18480510      -1.14376585      -3.09434202
H       -5.72097722      -2.43097265      -1.99361167
C       -9.82433915      -4.32900796      -7.63330935
C      -10.86306235      -4.42215617      -8.23896067
Br     -12.54258992      -4.57276896      -9.21824763
C       -0.88229181       0.88229181       0.88229181
C       -1.98629977       1.52879751       0.32826060
C       -2.79625595       2.32499905       1.14072751
C       -2.50707351       2.47729400       2.50233953
C       -1.38471642       1.83562188       3.04170631
C       -0.57671094       1.03123048       2.23476734
C       -3.36253034       3.31316652       3.35066789
C       -3.06866332       4.66012025       3.81979232
C       -4.26292098       5.15869221       4.19769692
N       -5.36256168       4.37455657       4.07117701
N       -4.73937135       3.11624495       3.50056740
C       -5.50176647       1.92663184       3.37888066
C       -4.93433365       0.64977719       3.48028019
C       -5.72268323      -0.49630816       3.37861271
Cl      -4.99216115      -2.05250364       3.51501648
C       -7.09533752      -0.40158214       3.18017718
C       -7.67525698       0.85827351       3.09000309
Cl      -9.37659733       0.99117536       2.85147618
C       -6.89256884       2.00757975       3.19126018
C       -4.45268733       6.50017971       4.75436384
C       -4.37975652       6.70106871       6.13818395
C       -4.57050488       7.97408337       6.67879392
C       -4.83349638       9.04835985       5.83014621
C       -4.90508442       8.86389491       4.44939153
C       -4.71305420       7.58836822       3.91369923
C       -1.71297582       5.25987262       3.82672341
H       -2.23155262       1.41991381      -0.72347921
H       -3.66699469       2.82969631       0.72611040
H       -1.16079338       1.94865006       4.09908639
H        0.27837980       0.52532187       2.67291375
H       -3.87569942       0.54610749       3.68102755
H       -7.70491386      -1.29479638       3.10680606
H       -7.35221326       2.99072132       3.12180241
H       -4.19187588       5.84792442       6.78528339
H       -4.52232412       8.10655762       7.75447380
H       -5.11864350       9.69335204       3.78342398
H       -4.78233942       7.42288050       2.84169150
H       -1.71342133       6.27847345       4.22672354
H       -1.30488332       5.30629859       2.81173105
H       -1.03257130       4.66648780       4.44650245
C       -5.04030357      10.36070427       6.38564862
C       -5.21350460      11.45979272       6.85088188
Br      -5.49355601      13.23692578       7.60312472
C        0.88229181      -0.88229181       0.88229181
C        2.14714507      -1.26136343       0.43484938
C        2.95442884      -2.05832705       1.24922662
C        2.50274594      -2.47723424       2.50672686
C        1.22291256      -2.10304263       2.93608942
C        0.41536173      -1.29874119       2.12860585
C        3.35593254      -3.31239245       3.35803976
C        3.22850256      -4.74705872       3.57301461
C        4.42286737      -5.12558497       4.07085777
N        5.38164365      -4.18187614       4.24477548
N        4.64413935      -2.94810337       3.76394098
C        5.20514593      -1.65811254       3.94402050
C        4.42253909      -0.51123505       4.13061689
C        5.01330557       0.73666020       4.32834241
Cl       4.01965960       2.12670229       4.56171667
C        6.39641015       0.87447107       4.35199348
C        7.18672748      -0.25592424       4.18088187
Cl       8.90256048      -0.10147278       4.21521560
C        6.60208282      -1.50607993       3.98324602
C        4.75364377      -6.50028559       4.45330152
C        4.51785195      -6.93930924       5.76184798
C        4.84037724      -8.24438931       6.13861562
C        5.39916499      -9.11172785       5.20110960
C        5.63596880      -8.68943017       3.89297189
C        5.31106585      -7.38291071       3.52114508
C        2.00615952      -5.52755364       3.26585868
H        2.51884746      -0.94318828      -0.53404852
H        3.94794703      -2.35598347       0.91887090
H        0.87190069      -2.42314939       3.91347975
H       -0.56647295      -1.00161514       2.48471363
H        3.34385741      -0.59568226       4.16329479
H        6.85127641       1.84535307       4.51100019
H        7.22560741      -2.38733097       3.85179862
H        4.09839581      -6.24298268       6.48370521
H        4.66140863      -8.56133695       7.16060997
H        6.07919211      -9.35580083       3.16042658
H        5.50454059      -7.03135667       2.51101416
H        2.12047803      -6.58815878       3.50998151
H        1.76150677      -5.46071509       2.20069110
H        1.15394129      -5.15059941       3.84102085
C        5.74182858     -10.45536637       5.58946151
C        6.02880934     -11.58066362       5.91470623
Br       6.49283296     -13.40017411       6.44059943
