186
Properties=species:S:1:pos:R:3 pbc="F F F"
C        1.79219583       1.79219583      -1.79219583
C        1.25463395       2.38414879      -2.93428720
C        2.06154958       3.19873833      -3.73140668
C        3.40139915       3.42311887      -3.39190110
C        3.93273880       2.80803565      -2.25098223
C        3.12705911       1.99947305      -1.44588868
C        4.24305942       4.28107863      -4.23193876
C        5.25171101       3.84091144      -5.18566551
C        5.45777837       4.90867425      -5.98256955
N        4.75228412       6.04232376      -5.74339947
N        3.93265948       5.60884544      -4.54439085
C        3.16639542       6.55431965      -3.81627598
C        2.91919410       6.43216474      -2.44274427
C        2.18035675       7.39663042      -1.75771268
Cl       1.90081592       7.21820300      -0.06536714
C        1.67452491       8.50957094      -2.41954878
C        1.92181863       8.65160374      -3.77982328
Cl       1.30735753      10.02974384      -4.61185957
C        2.66001323       7.69112864      -4.46997897
C        6.41262545       4.93123633      -7.09308117
C        7.73295984       5.34241438      -6.87334703
C        8.64715016       5.37798764      -7.92795644
C        8.23720280       4.99912031      -9.20539142
Br       9.46983666       5.05821065     -10.63964234
C        6.92622083       4.58354133      -9.43832076
C        6.01576171       4.54938612      -8.37968589
C        5.84927060       2.48427565      -5.19573766
H        0.21720866       2.22784993      -3.21264070
H        1.65534935       3.67555562      -4.62160850
H        4.97104256       2.98425192      -1.98294742
H        3.54942956       1.54582048      -0.55431786
H        3.33979560       5.60025379      -1.89249714
H        1.10518166       9.25920665      -1.88224730
H        2.85190140       7.80859221      -5.53395546
H        8.02916282       5.65157379      -5.87405915
H        9.66214965       5.71145863      -7.73945934
H        6.59741093       4.29620298     -10.43151768
H        4.98574657       4.24480283      -8.54607409
H        6.59258915       2.36567419      -5.99006705
H        5.07822293       1.72266325      -5.35173885
H        6.35219062       2.27797277      -4.24511024
C       -1.79219583      -1.79219583      -1.79219583
C       -3.17930113      -1.66927876      -1.72449007
C       -3.98130089      -2.46962924      -2.54076446
C       -3.40295001      -3.39088177      -3.42258733
C       -2.00841591      -3.51576440      -3.46757638
C       -1.20195808      -2.71118228      -2.65928047
C       -4.25044456      -4.22708480      -4.27854746
C       -4.57154546      -5.63271172      -4.07403078
C       -5.66007473      -5.84960807      -4.83933938
N       -6.16383008      -4.81564552      -5.55853174
N       -5.19317651      -3.71590232      -5.17681695
C       -5.21654606      -2.46879216      -5.85165283
C       -4.06911663      -1.68694517      -6.03804130
C       -4.12946379      -0.47664087      -6.72859520
Cl      -2.69606985       0.45732216      -6.94563837
C       -5.33039093      -0.01669105      -7.25656265
C       -6.47534037      -0.78697156      -7.09093373
Cl      -7.96957061      -0.23304751      -7.74634282
C       -6.42129268      -1.99783712      -6.40199105
C       -6.33454277      -7.14440186      -4.95799832
C       -5.94611596      -8.04776961      -5.95483567
C       -6.59073600      -9.27955703      -6.08280122
C       -7.62606805      -9.60706638      -5.20858009
Br      -8.51057558     -11.27012712      -5.38698694
C       -8.02102294      -8.71875016      -4.20830983
C       -7.37253024      -7.48793500      -4.08436847
C       -3.80616524      -6.53859090      -3.18452778
H       -3.64795529      -0.95774514      -1.05199886
H       -5.06557802      -2.38019859      -2.50673686
H       -1.55707181      -4.22681685      -4.15435324
H       -0.12206571      -2.80699005      -2.72051213
H       -3.11196784      -2.04223942      -5.67833927
H       -5.37174416       0.92199734      -7.79688879
H       -7.32011180      -2.59717554      -6.27716172
H       -5.14899132      -7.76708321      -6.63872123
H       -6.28321486      -9.96030100      -6.86955176
H       -8.83211490      -8.96273418      -3.53028252
H       -7.67844074      -6.77627154      -3.32191121
H       -4.21144867      -7.55509754      -3.18178418
H       -3.82577497      -6.17492391      -2.15192616
H       -2.76217629      -6.60468623      -3.50841111
C       -1.79219583       1.79219583       1.79219583
C       -3.17372264       1.79458614       1.60476118
C       -3.97707857       2.59381963       2.42079638
C       -3.40559021       3.38941213       3.42141678
C       -2.01457924       3.39013152       3.58704593
C       -1.20781532       2.58568186       2.77892366
C       -4.25470421       4.22502320       4.27634941
C       -4.44494786       5.66478293       4.16855717
C       -5.57461448       5.91318338       4.86122433
N       -6.21841083       4.87270173       5.44689478
N       -5.30853482       3.72729126       5.05006970
C       -5.48826643       2.43737208       5.61135254
C       -4.42648143       1.54760222       5.82001946
C       -4.64137858       0.29617042       6.39715085
Cl      -3.31023903      -0.77165568       6.64580271
C       -5.91579123      -0.09923828       6.78709169
C       -6.97781008       0.77719037       6.59824521
Cl      -8.56189292       0.30356376       7.08350425
C       -6.76926335       2.02959319       6.02226431
C       -6.15232282       7.24766871       5.03695143
C       -5.78075089       8.03271743       6.13525293
C       -6.33459439       9.30132823       6.31717161
C       -7.26189201       9.78460527       5.39521724
Br      -8.02422749      11.49815519       5.64530695
C       -7.63846294       9.01533713       4.29428285
C       -7.08104197       7.74704131       4.11675044
C       -3.53681307       6.56905112       3.42341973
H       -3.63766396       1.18131375       0.83872157
H       -5.05809210       2.60080061       2.29362076
H       -1.56909448       4.00328337       4.36586405
H       -0.13298866       2.58326075       2.93331849
H       -3.41690265       1.84670510       5.56893878
H       -6.07745522      -1.07066755       7.23984794
H       -7.60384879       2.71188707       5.87871320
H       -5.06998705       7.63144317       6.85336555
H       -6.04293037       9.88882748       7.18130977
H       -8.36650266       9.38089624       3.57773270
H       -7.37563637       7.12677545       3.27421166
H       -3.85874686       7.61363088       3.47595266
H       -3.49635952       6.29116986       2.36509565
H       -2.52254780       6.51944390       3.83328192
C        1.79219583      -1.79219583       1.79219583
C        1.20728135      -2.59646135       2.76932725
C        2.01643830      -3.40957103       3.56568525
C        3.40553988      -3.42144216       3.38943707
C        3.98100862      -2.59535176       2.41539630
C        3.17486085      -1.78691876       1.61064123
C        4.24964223      -4.27890223       4.22753236
C        5.06529287      -3.85570967       5.35728543
C        5.31869176      -4.99028925       6.04004117
N        4.81026363      -6.15704048       5.57070323
N        4.08969789      -5.66474394       4.33145395
C        3.55469098      -6.58647807       3.39582200
C        3.46084214      -6.30700305       2.02625791
C        2.95020745      -7.25002895       1.13446346
Cl       2.85534291      -6.87521234      -0.54616919
C        2.52631546      -8.49644539       1.58088378
C        2.62459639      -8.79362363       2.93502564
Cl       2.10988888     -10.33732809       3.50174398
C        3.13452982      -7.85530447       3.83128655
C        6.12626263      -5.05009389       7.26058643
C        7.50744435      -5.26446049       7.17681641
C        8.28359606      -5.33426645       8.33523173
C        7.67400403      -5.18738415       9.58032633
Br       8.72056410      -5.29413596      11.15298958
C        6.29981520      -4.96937913       9.67888860
C        5.52801336      -4.89996159       8.51685878
C        5.46457597      -2.45122554       5.61348241
H        0.13225274      -2.60654294       2.91890362
H        1.57523710      -4.05006674       4.32720963
H        5.05839827      -2.60616586       2.27367777
H        3.63531577      -1.16705248       0.84719965
H        3.82618584      -5.36253231       1.64382839
H        2.13484751      -9.22815279       0.88363531
H        3.21076714      -8.09419752       4.88948441
H        7.96199821      -5.39488927       6.19790828
H        9.35013253      -5.51344764       8.24948744
H        5.81694971      -4.86350315      10.64467873
H        4.45336812      -4.74794696       8.57530841
H        6.08296205      -2.35425398       6.51111437
H        4.58279064      -1.81719527       5.75263913
H        6.04543654      -2.05664643       4.77319065
C       -0.00445707       0.01189536      -1.78238275
H       -0.66409135       0.67374010      -2.43557963
H        0.65740317      -0.63156657      -2.45157240
C       -0.90989263      -0.90692880      -0.91072765
C        0.90977584       0.90977584      -0.90977584
C       -0.00465871       1.77757030       0.00794375
H       -0.66225468       2.44313916      -0.64384735
H        0.64322798       2.43503045       0.67728295
C       -1.78241447       0.00034974      -0.00472694
H       -2.45427497      -0.65498947       0.64260836
H       -2.43311707       0.67328779      -0.65473579
C       -0.91132561       0.90220522       0.91563759
C       -0.01476271      -0.02253852       1.78660255
H       -0.67934791      -0.69751639       2.42135241
H        0.63392994       0.61504881       2.47327442
C        0.01484550      -1.77751727      -0.01636693
H        0.67870853      -2.42144646      -0.68295456
H       -0.62264859      -2.45592969       0.64226336
C        1.78714474       0.01002794       0.00389507
H        2.44202412       0.67113390       0.66197326
H        2.45385902      -0.65136977      -0.64189061
C        0.91606151      -0.90478549       0.90901405
