194
Properties=species:S:1:pos:R:3 pbc="F F F"
C        1.79219583       1.79219583      -1.79219583
C        1.25463395       2.38414879      -2.93428720
C        2.06154958       3.19873833      -3.73140668
C        3.40139915       3.42311887      -3.39190110
C        3.93273880       2.80803565      -2.25098223
C        3.12705911       1.99947305      -1.44588868
C        4.24305942       4.28107863      -4.23193876
C        5.25171101       3.84091144      -5.18566551
C        5.45777837       4.90867425      -5.98256955
N        4.75228412       6.04232376      -5.74339947
N        3.93265948       5.60884544      -4.54439085
C        3.16639542       6.55431965      -3.81627598
C        2.91919410       6.43216474      -2.44274427
C        2.18035675       7.39663042      -1.75771268
Cl       1.90081592       7.21820300      -0.06536714
C        1.67452491       8.50957094      -2.41954878
C        1.92181863       8.65160374      -3.77982328
Cl       1.30735753      10.02974384      -4.61185957
C        2.66001323       7.69112864      -4.46997897
C        6.41262545       4.93123633      -7.09308117
C        7.73295984       5.34241438      -6.87334703
C        8.64715016       5.37798764      -7.92795644
C        8.23720280       4.99912031      -9.20539142
C        6.92622083       4.58354133      -9.43832076
C        6.01576171       4.54938612      -8.37968589
C        5.84927060       2.48427565      -5.19573766
H        0.21720866       2.22784993      -3.21264070
H        1.65534935       3.67555562      -4.62160850
H        4.97104256       2.98425192      -1.98294742
H        3.54942956       1.54582048      -0.55431786
H        3.33979560       5.60025379      -1.89249714
H        1.10518166       9.25920665      -1.88224730
H        2.85190140       7.80859221      -5.53395546
H        8.02916282       5.65157379      -5.87405915
H        9.66214965       5.71145863      -7.73945934
H        6.59741093       4.29620298     -10.43151768
H        4.98574657       4.24480283      -8.54607409
H        6.59258915       2.36567419      -5.99006705
H        5.07822293       1.72266325      -5.35173885
H        6.35219062       2.27797277      -4.24511024
C        9.17532170       5.04409211     -10.29695473
C        9.96099628       5.08175599     -11.21113900
Br      11.23136562       5.14265531     -12.68929765
C       -1.79219583      -1.79219583      -1.79219583
C       -3.17613258      -1.62463339      -1.77230398
C       -3.97764147      -2.42543799      -2.58861513
C       -3.40196409      -3.39151604      -3.42293898
C       -2.01136606      -3.56055025      -3.41984038
C       -1.20502417      -2.75590803      -2.61148863
C       -4.24884059      -4.22799843      -4.27923779
C       -4.62047064      -5.61590592      -4.04191140
C       -5.69130010      -5.82340596      -4.83431611
N       -6.13969044      -4.79777194      -5.60054495
N       -5.14684953      -3.71682397      -5.22222228
C       -5.10992849      -2.49160394      -5.93545862
C       -3.93310636      -1.75168259      -6.10931415
C       -3.93381068      -0.56259466      -6.83829451
Cl      -2.46553890       0.31953639      -7.03838355
C       -5.10276474      -0.08293125      -7.41794864
C       -6.27610479      -0.81203168      -7.26510918
Cl      -7.73118135      -0.23351380      -7.98426579
C       -6.28166208      -2.00153784      -6.53792092
C       -6.40250977      -7.09997581      -4.93445737
C       -6.01247052      -8.04599705      -5.89025368
C       -6.69157802      -9.26083405      -6.00068216
C       -7.76314327      -9.52850061      -5.15007064
C       -8.16028685      -8.59720683      -4.19058925
C       -7.47721763      -7.38358769      -4.08402840
C       -3.91188305      -6.51622104      -3.10117983
H       -3.64243656      -0.87807604      -1.13718669
H       -5.05907205      -2.30170134      -2.59174008
H       -1.56190109      -4.30654790      -4.06979291
H       -0.12734039      -2.88674323      -2.63548428
H       -2.99920545      -2.12463636      -5.70870472
H       -5.09771964       0.83898420      -7.98790017
H       -7.20243935      -2.56871856      -6.42329115
H       -5.18621281      -7.81175521      -6.55682774
H       -6.38176332      -9.97530297      -6.75600133
H       -8.99915479      -8.79453863      -3.53143818
H       -7.78369670      -6.63904902      -3.35387777
H       -4.34907895      -7.51919731      -3.08005414
H       -3.95167219      -6.11957259      -2.08138025
H       -2.86105581      -6.62459568      -3.38962213
C       -8.47160883     -10.77659090      -5.26816881
C       -9.06494873     -11.82186652      -5.36707602
Br     -10.02432918     -13.51198879      -5.52700062
C       -1.79219583       1.79219583       1.79219583
C       -3.17604212       1.77324890       1.62377894
C       -3.97916916       2.57265768       2.43986775
C       -3.40515266       3.38963298       3.42163347
C       -2.01216284       3.41151767       3.56807618
C       -1.20544921       2.60704889       2.75992274
C       -4.25400181       4.22532667       4.27674834
C       -4.46549008       5.66075072       4.15204715
C       -5.58896019       5.90330107       4.85676092
N       -6.21036349       4.86233419       5.46530965
N       -5.29027993       3.72402932       5.07158653
C       -5.44460312       2.43963646       5.65275147
C       -4.36793682       1.56732080       5.85884548
C       -4.55773353       0.32114883       6.45581750
Cl      -3.20876939      -0.72498242       6.70059909
C       -5.82117140      -0.08612154       6.86859478
C       -6.89761878       0.77312502       6.68250185
Cl      -8.46829825       0.28475892       7.19590376
C       -6.71416905       2.02019745       6.08675435
C       -6.18254241       7.23211213       5.02228841
C       -5.80693364       8.03717585       6.10461176
C       -6.37566474       9.30053393       6.27689558
C       -7.32195817       9.75844105       5.36131530
C       -7.70281796       8.96905086       4.27621410
C       -7.13045484       7.70611665       4.10826222
C       -3.58008799       6.56692364       3.38227228
H       -3.64185622       1.14324853       0.87259454
H       -5.06180339       2.56321002       2.32750006
H       -1.56462669       4.04132283       4.33229238
H       -0.12869390       2.62134621       2.89952779
H       -3.36607247       1.87661897       5.58985509
H       -5.96328747      -1.05333247       7.33668062
H       -7.55993851       2.68905684       5.94545372
H       -5.08102975       7.65551064       6.81825538
H       -6.08040911       9.90377718       7.12888133
H       -8.44548170       9.31479454       3.56485535
H       -7.42789605       7.07037041       3.27835703
H       -3.91562586       7.60766033       3.42504421
H       -3.55018613       6.27507690       2.32736200
H       -2.55976482       6.53673766       3.77877115
C       -7.91740501      11.05706884       5.54189468
C       -8.41609175      12.14466961       5.69312991
Br      -9.22242602      13.90322808       5.93766448
C        1.79219583      -1.79219583       1.79219583
C        1.21003169      -2.57417192       2.78886634
C        2.01895003      -3.38746115       3.58528341
C        3.40508567      -3.42166585       3.38966759
C        3.97815767      -2.61769073       2.39590828
C        3.17206200      -1.80923857       1.59112027
C        4.24891396      -4.27920787       4.22795499
C        5.08650927      -3.85183904       5.33993965
C        5.33362832      -4.98019140       6.03520245
N        4.80215515      -6.14605443       5.58979776
N        4.07096018      -5.66102030       4.35391530
C        3.50970182      -6.58810593       3.43918330
C        3.40023639      -6.32664346       2.06722326
C        2.86367184      -7.27474720       1.19628081
Cl       2.75008861      -6.92233087      -0.48803342
C        2.42868299      -8.50856430       1.66639734
C        2.54210975      -8.78800707       3.02312883
Cl       2.01385407     -10.31605937       3.61904750
C        3.07797071      -7.84453616       3.89861397
C        6.15763751      -5.03432773       7.24497771
C        7.53432334      -5.26957089       7.14482701
C        8.32589084      -5.33413293       8.29307047
C        7.73628568      -5.16102442       9.54440441
C        6.36685400      -4.92203508       9.65919385
C        5.57957837      -4.85797448       8.50728087
C        5.50916298      -2.44973434       5.57038660
H        0.13721525      -2.56677995       2.95370409
H        1.57969640      -4.01079227       4.36202480
H        5.05315254      -2.64589721       2.23919215
H        3.63024739      -1.20683490       0.81248560
H        3.77334878      -5.39297285       1.66622490
H        2.01701909      -9.24435401       0.98526252
H        3.16595002      -8.06956037       4.95893868
H        7.97295764      -5.42026280       6.16157532
H        9.38846236      -5.52972878       8.19487648
H        5.89938034      -4.79567124      10.63008002
H        4.50812685      -4.68980842       8.57868822
H        6.14161952      -2.34897222       6.45773866
H        4.63847768      -1.80126884       5.71287852
H        6.08345710      -2.07537610       4.71644042
C        8.54859024      -5.23677218      10.73100611
C        9.22889530      -5.30021094      11.72478503
Br      10.32889105      -5.40278603      13.33164149
C       -0.00445707       0.01189536      -1.78238275
H       -0.66409135       0.67374010      -2.43557963
H        0.65740317      -0.63156657      -2.45157240
C       -0.90989263      -0.90692880      -0.91072765
C        0.90977584       0.90977584      -0.90977584
C       -0.00465871       1.77757030       0.00794375
H       -0.66225468       2.44313916      -0.64384735
H        0.64322798       2.43503045       0.67728295
C       -1.78241447       0.00034974      -0.00472694
H       -2.45427497      -0.65498947       0.64260836
H       -2.43311707       0.67328779      -0.65473579
C       -0.91132561       0.90220522       0.91563759
C       -0.01476271      -0.02253852       1.78660255
H       -0.67934791      -0.69751639       2.42135241
H        0.63392994       0.61504881       2.47327442
C        0.01484550      -1.77751727      -0.01636693
H        0.67870853      -2.42144646      -0.68295456
H       -0.62264859      -2.45592969       0.64226336
C        1.78714474       0.01002794       0.00389507
H        2.44202412       0.67113390       0.66197326
H        2.45385902      -0.65136977      -0.64189061
C        0.91606151      -0.90478549       0.90901405
