186
Properties=species:S:1:pos:R:3 pbc="F F F"
Cl       2.01362554      12.12791149       0.13010554
C        2.08712932      11.04825439      -1.20576045
C        2.11267891      11.54647098      -2.50398436
C        2.16690945      10.66682895      -3.58998397
C        2.18368546       9.27599666      -3.38897534
C        2.18755096       8.79535501      -2.06754757
C        2.12689101       9.67409064      -0.98236472
C        2.26430295       8.35694201      -4.59457126
N        1.61449990       7.06177678      -4.38727151
N        2.37929137       6.06516799      -3.89361765
C        1.55051191       5.02230439      -3.74495338
C        2.06007948       3.77621390      -3.16006935
C        3.39462578       3.39696655      -3.38995887
C        3.91856894       2.22810578      -2.83205009
C        3.11276324       1.41953267      -2.03520002
C        1.79253824       1.79253824      -1.79253824
C        1.26661090       2.96533659      -2.33951609
C        0.25753327       5.35549343      -4.24268999
Cl      -1.09774590       4.32035340      -4.31490511
C        0.32231977       6.67370107      -4.68087009
C       -0.69860436       7.50018188      -5.34252199
C       -1.43256475       6.97662513      -6.41963842
C       -2.42171582       7.73161337      -7.05749287
C       -2.67319423       9.03666338      -6.64587007
C       -1.94914924       9.56841578      -5.58272037
Br      -2.26383230      11.35096996      -5.03412568
C       -0.98615861       8.80354749      -4.91875459
H        2.09384842      12.61910834      -2.67831428
H        2.19317260      11.08056069      -4.59661350
H        2.23995594       7.72774310      -1.85753056
H        2.11793719       9.27771954       0.02981460
H        3.31756363       8.16310515      -4.83208917
H        1.80666853       8.81435024      -5.47773536
H        4.03988960       4.02171808      -4.00601669
H        4.95416027       1.95530968      -3.01793061
H        3.52265232       0.51044221      -1.60346924
H        0.24489954       3.24595625      -2.10152668
H       -1.24767552       5.96473518      -6.77517676
H       -2.99184387       7.29755230      -7.87517920
H       -3.43452554       9.62419723      -7.15261754
H       -0.47906780       9.23091935      -4.06024228
Cl       1.81650192     -11.27524884      -4.55268457
C        0.86633225     -10.00057896      -5.20689745
C        0.42639388     -10.06483587      -6.52469226
C       -0.34188266      -9.02454916      -7.05729055
C       -0.66861595      -7.90054965      -6.27949185
C       -0.23874854      -7.87069183      -4.94101316
C        0.53441096      -8.90719029      -4.41056704
C       -1.52245610      -6.80364298      -6.88971714
N       -1.24918054      -5.47511957      -6.33924807
N       -1.97569621      -5.09544342      -5.26693738
C       -1.50233658      -3.88840989      -4.92702322
C       -2.04286182      -3.21134010      -3.74216082
C       -3.39193665      -3.39796654      -3.39164800
C       -3.93423952      -2.78538624      -2.25909905
C       -3.13309910      -1.97464389      -1.45975294
C       -1.79253824      -1.79253824      -1.79253824
C       -1.24268422      -2.41076497      -2.91801439
C       -0.51651511      -3.47149380      -5.86770777
Cl       0.31367156      -1.98008838      -5.87109579
C       -0.38286540      -4.50057728      -6.79344824
C        0.44115350      -4.57588475      -8.00936825
C        0.45272576      -3.50187367      -8.91455088
C        1.23934552      -3.53663032     -10.07010561
C        2.00688219      -4.66172592     -10.35449549
C        2.00010213      -5.73444790      -9.46764114
Br       3.01795127      -7.27974129      -9.85947331
C        1.24429529      -5.68743403      -8.29300472
H        0.67506887     -10.92359677      -7.14274313
H       -0.68065057      -9.10060190      -8.08909431
H       -0.49925726      -7.04098349      -4.28498886
H        0.86576453      -8.85505302      -3.37655364
H       -2.58114400      -7.02499972      -6.70661424
H       -1.38166042      -6.74332461      -7.97376910
H       -4.03046552      -4.03407971      -4.00307914
H       -4.97817107      -2.94643125      -2.00279825
H       -3.55786623      -1.49860925      -0.58008829
H       -0.18584935      -2.27736634      -3.12916678
H       -0.14948717      -2.61470541      -8.72804384
H        1.24868917      -2.68441276     -10.74516404
H        2.60734545      -4.68944048     -11.26019420
H        1.30456474      -6.51840725      -7.59825132
Cl      -4.90814625      -1.99179118      11.09507642
C       -5.50137156      -0.99019749       9.82997009
C       -6.80818427      -0.51605099       9.87100098
C       -7.29120239       0.29416282       8.83835715
C       -6.47430791       0.62935086       7.74499868
C       -5.14750327       0.16377791       7.73917236
C       -4.66666224      -0.65115464       8.76783877
C       -7.03104740       1.52871665       6.65605218
N       -6.45175260       1.27606770       5.33572789
N       -5.35033625       1.98271352       5.00502723
C       -4.99014024       1.53266773       3.79496173
C       -3.77305334       2.05832605       3.16498336
C       -3.39181410       3.39176727       3.39796983
C       -2.22872861       3.91891448       2.83108172
C       -1.42911703       3.11808049       2.02029840
C       -1.79253824       1.79253824       1.79253824
C       -2.94891364       1.25749970       2.36505023
C       -5.94505550       0.58461340       3.32604779
Cl      -5.92963887      -0.20493863       1.81281236
C       -6.90200210       0.44897773       4.32591110
C       -8.14115914      -0.34299986       4.34594022
C       -9.01643818      -0.30090727       3.24816788
C      -10.19315759      -1.05608827       3.23032110
C      -10.52883874      -1.84535788       4.32585836
C       -9.67196731      -1.89170042       5.42172001
Br     -10.13327291      -2.93939223       6.92738265
C       -8.47666804      -1.16750640       5.42698182
H       -7.45606204      -0.77053169      10.70574069
H       -8.31526799       0.65902997       8.89604882
H       -4.46216247       0.42826113       6.93480601
H       -3.64084804      -1.00931398       8.73430808
H       -6.82582467       2.57566062       6.91127267
H       -8.11641050       1.41946210       6.56288153
H       -4.00319875       4.02961535       4.03481027
H       -1.94909782       4.95071402       3.02758872
H       -0.52563263       3.53107974       1.57985140
H       -3.18453531       0.21082413       2.19702303
H       -8.78953936       0.31948318       2.38321388
H      -10.84452395      -1.02403757       2.36040124
H      -11.45070857      -2.42120464       4.31278529
H       -7.80690054      -1.26909193       6.27428523
Cl       2.77722359       0.72092287      11.95513077
C        3.71843724       0.05642846      10.67913538
C        5.06732218      -0.21789361      10.87791847
C        5.83313044      -0.75332548       9.83726645
C        5.25954131      -1.00909899       8.58001716
C        3.88747064      -0.75227181       8.41071109
C        3.12354433      -0.21122596       9.44857608
C        6.12111250      -1.61044902       7.48425470
N        5.70933048      -1.21898569       6.13523201
N        4.81064183      -2.01241328       5.51502189
C        4.56104455      -1.41561945       4.34110570
C        3.56252254      -1.99758682       3.43625338
C        3.39089058      -3.39284890       3.39781172
C        2.43580228      -3.97930844       2.56361409
C        1.63763729      -3.17654653       1.75331210
C        1.79253824      -1.79253824       1.79253824
C        2.73887519      -1.20038372       2.63220467
C        5.39368735      -0.26870284       4.19332650
Cl       5.46511728       0.76296708       2.83536241
C        6.15249763      -0.16989718       5.35449611
C        7.21645122       0.78157957       5.70922785
C        8.23887579       1.06342767       4.78825068
C        9.25415586       1.97645809       5.08969265
C        9.27941741       2.60220238       6.33212420
C        8.27444506       2.32756264       7.25510449
Br       8.31562575       3.15149915       8.95713673
C        7.23751621       1.44413437       6.94276163
H        5.52904574      -0.02040531      11.84181999
H        6.88519369      -0.96626456      10.01888854
H        3.38652789      -0.97039554       7.46830618
H        2.06736411      -0.00931522       9.28916280
H        6.06718907      -2.70462648       7.54094240
H        7.17205010      -1.32638844       7.60031559
H        4.00313468      -4.03445500       4.03003469
H        2.31553828      -5.05950680       2.55235548
H        0.89635449      -3.63550988       1.10469940
H        2.80946465      -0.11725039       2.66566743
H        8.25555456       0.57774016       3.81442202
H       10.02303000       2.19479548       4.35265311
H       10.07744623       3.30197579       6.56681880
H        6.44189342       1.29470045       7.66490086
C       -0.00445707       0.01189536      -1.78238275
H       -0.66409135       0.67374010      -2.43557963
H        0.65740317      -0.63156657      -2.45157240
C       -0.90989263      -0.90692880      -0.91072765
C        0.90977584       0.90977584      -0.90977584
C       -0.00465871       1.77757030       0.00794375
H       -0.66225468       2.44313916      -0.64384735
H        0.64322798       2.43503045       0.67728295
C       -1.78241447       0.00034974      -0.00472694
H       -2.45427497      -0.65498947       0.64260836
H       -2.43311707       0.67328779      -0.65473579
C       -0.91132561       0.90220522       0.91563759
C       -0.01476271      -0.02253852       1.78660255
H       -0.67934791      -0.69751639       2.42135241
H        0.63392994       0.61504881       2.47327442
C        0.01484550      -1.77751727      -0.01636693
H        0.67870853      -2.42144646      -0.68295456
H       -0.62264859      -2.45592969       0.64226336
C        1.78714474       0.01002794       0.00389507
H        2.44202412       0.67113390       0.66197326
H        2.45385902      -0.65136977      -0.64189061
C        0.91606151      -0.90478549       0.90901405
