194
Properties=species:S:1:pos:R:3 pbc="F F F"
Cl       2.01362554      12.12791149       0.13010554
C        2.08712932      11.04825439      -1.20576045
C        2.11267891      11.54647098      -2.50398436
C        2.16690945      10.66682895      -3.58998397
C        2.18368546       9.27599666      -3.38897534
C        2.18755096       8.79535501      -2.06754757
C        2.12689101       9.67409064      -0.98236472
C        2.26430295       8.35694201      -4.59457126
N        1.61449990       7.06177678      -4.38727151
N        2.37929137       6.06516799      -3.89361765
C        1.55051191       5.02230439      -3.74495338
C        2.06007948       3.77621390      -3.16006935
C        3.39462578       3.39696655      -3.38995887
C        3.91856894       2.22810578      -2.83205009
C        3.11276324       1.41953267      -2.03520002
C        1.79253824       1.79253824      -1.79253824
C        1.26661090       2.96533659      -2.33951609
C        0.25753327       5.35549343      -4.24268999
Cl      -1.09774590       4.32035340      -4.31490511
C        0.32231977       6.67370107      -4.68087009
C       -0.69860436       7.50018188      -5.34252199
C       -1.43256475       6.97662513      -6.41963842
C       -2.42171582       7.73161337      -7.05749287
C       -2.67319423       9.03666338      -6.64587007
C       -1.94914924       9.56841578      -5.58272037
C       -0.98615861       8.80354749      -4.91875459
H        2.09384842      12.61910834      -2.67831428
H        2.19317260      11.08056069      -4.59661350
H        2.23995594       7.72774310      -1.85753056
H        2.11793719       9.27771954       0.02981460
H        3.31756363       8.16310515      -4.83208917
H        1.80666853       8.81435024      -5.47773536
H        4.03988960       4.02171808      -4.00601669
H        4.95416027       1.95530968      -3.01793061
H        3.52265232       0.51044221      -1.60346924
H        0.24489954       3.24595625      -2.10152668
H       -1.24767552       5.96473518      -6.77517676
H       -2.99184387       7.29755230      -7.87517920
H       -3.43452554       9.62419723      -7.15261754
H       -0.47906780       9.23091935      -4.06024228
C       -2.18872738      10.92553051      -5.16505792
C       -2.38937408      12.06211409      -4.81526562
Br      -2.71380281      13.89987362      -4.24968105
Cl      -0.71676127     -12.22720866      -1.06746156
C       -1.05603061     -11.03069821      -2.25441534
C       -1.17998835     -11.39122927      -3.59191663
C       -1.45054159     -10.41597420      -4.55720658
C       -1.58802094      -9.06483044      -4.19580608
C       -1.48861108      -8.72747332      -2.83436914
C       -1.21189515      -9.70100363      -1.87044758
C       -1.90257883      -8.04129944      -5.27193794
N       -1.37093525      -6.70810412      -4.98450881
N       -2.17257145      -5.86337119      -4.30213436
C       -1.44476217      -4.75260146      -4.12040606
C       -2.00957409      -3.64131558      -3.34547308
C       -3.39384255      -3.39742192      -3.39028673
C       -3.96797327      -2.36129549      -2.64945605
C       -3.16349177      -1.55182758      -1.85217657
C       -1.79253824      -1.79253824      -1.79253824
C       -1.21477315      -2.83345778      -2.52323264
C       -0.19060984      -4.88037732      -4.78472953
Cl       1.03251607      -3.69335545      -4.87667322
C       -0.16870152      -6.14463849      -5.36355092
C        0.84885773      -6.77422776      -6.21872947
C        1.39485916      -6.06035656      -7.29820140
C        2.37637624      -6.62546961      -8.11829704
C        2.80777117      -7.92820129      -7.88890911
C        2.27079654      -8.64757209      -6.82521135
C        1.31712203      -8.07237601      -5.98088948
H       -1.07037708     -12.43057385      -3.89032011
H       -1.55018833     -10.72336004      -5.59679842
H       -1.62673419      -7.70068167      -2.49781374
H       -1.12690472      -9.41334765      -0.82558977
H       -2.99064272      -7.94719114      -5.37492409
H       -1.50538148      -8.34858223      -6.24479042
H       -4.03785007      -4.02545062      -4.00432368
H       -5.04078739      -2.19249449      -2.69411868
H       -3.61263890      -0.74602217      -1.27790270
H       -0.14882357      -3.01699713      -2.42656177
H        1.06613237      -5.04532289      -7.51304591
H        2.79986400      -6.04587790      -8.93487374
H        3.56206331      -8.36787522      -8.53647732
H        0.95994050      -8.64229089      -5.12974345
C        2.69653304     -10.00374012      -6.59465396
C        3.05308736     -11.13953085      -6.40156215
Br       3.62960554     -12.97600839      -6.08934902
Cl      -1.30469540       0.49141226      12.21532383
C       -2.45962339       0.87919556      11.00232521
C       -3.80149763       1.02339998      11.33823665
C       -4.74080564       1.33345373      10.34946299
C       -4.34891323       1.49072399       9.00902024
C       -2.98309522       1.37009532       8.69726299
C       -2.04524398       1.05394452       9.68415786
C       -5.39713219       1.84802541       7.97065862
N       -5.09307084       1.33761452       6.63286283
N       -4.37736197       2.14191269       5.81880235
C       -4.18750821       1.43310339       4.69715809
C       -3.37856758       2.00415317       3.61364199
C       -3.39036203       3.39369689       3.39749228
C       -2.61687119       3.97324621       2.38860741
C       -1.81948587       3.16901399       1.57899606
C       -1.79253824       1.79253824       1.79253824
C       -2.55606931       1.20905018       2.80634408
C       -4.87953142       0.19059238       4.78559288
Cl      -4.97167145      -1.00614235       3.57198350
C       -5.48462705       0.15508442       6.03717945
C       -6.37299404      -0.85713583       6.62824128
C       -7.44832636      -1.36622311       5.88159555
C       -8.29956710      -2.34183691       6.40966023
C       -8.10585786      -2.80410583       7.70758720
C       -7.04658896      -2.30382740       8.45922535
C       -6.17148674      -1.35634043       7.92099716
H       -4.12342594       0.89898726      12.36885784
H       -5.78428984       1.44828737      10.63776958
H       -2.62271366       1.52196755       7.68054840
H       -0.99660675       0.95325382       9.41598157
H       -5.47614905       2.93966115       7.89694775
H       -6.38394201       1.46484779       8.24996432
H       -4.00408195       4.03740920       4.02613323
H       -2.63635661       5.04994498       2.24109897
H       -1.21975776       3.62241283       0.79439318
H       -2.48476258       0.13784272       2.96977717
H       -7.63550596      -1.01269273       4.86942319
H       -9.11240750      -2.73659657       5.80507670
H       -8.77746482      -3.55361282       8.11843722
H       -5.32523164      -1.02837677       8.51523897
C       -6.85269843      -2.76154410       9.81070671
C       -6.69031512      -3.14488183      10.94257236
Br      -6.42775503      -3.76470653      12.77270338
Cl       7.64682610       2.83557908       9.20018447
C        7.72959092       1.50416092       8.11571416
C        8.89706643       0.75437307       8.02044089
C        8.96485238      -0.32511624       7.13375375
C        7.86731558      -0.65928185       6.32206003
C        6.68737676       0.09359679       6.45667357
C        6.62162447       1.17633393       7.33805583
C        7.97557199      -1.85160355       5.38864069
N        7.16200074      -1.72295722       4.17859022
N        5.90138364      -2.20205221       4.23464117
C        5.35962266      -1.91554073       3.04260629
C        3.95271996      -2.25108543       2.79255735
C        3.39326005      -3.39061479       3.39767636
C        2.05233052      -3.72835382       3.19804047
C        1.25033997      -2.92967143       2.38748452
C        1.79253824      -1.79253824       1.79253824
C        3.12985886      -1.44464860       1.99695612
C        6.33905880      -1.32189812       2.19475977
Cl       6.11915292      -0.84882422       0.56953547
C        7.51096120      -1.22836046       2.93756926
C        8.84647048      -0.75828126       2.53934776
C        9.41738445      -1.20870190       1.33761244
C       10.67757709      -0.76625754       0.92355579
C       11.40166848       0.11390499       1.72157573
C       10.84866832       0.56372451       2.91704310
C        9.57362264       0.15282213       3.31534295
H        9.75782639       1.00248661       8.63593126
H        9.88694581      -0.90150277       7.08189821
H        5.79608833      -0.14961657       5.87952471
H        5.70224535       1.75126065       7.41485744
H        7.64297904      -2.75470939       5.91506952
H        9.00985898      -2.01823823       5.07065692
H        4.00562408      -4.02247349       4.03952680
H        1.63787761      -4.61065129       3.67887167
H        0.20802707      -3.19539391       2.23314280
H        3.51176205      -0.53254117       1.54807925
H        8.88259320      -1.90988328       0.69975994
H       11.08993568      -1.11208217      -0.02113023
H       12.38618549       0.44564115       1.40174489
H        9.15146993       0.56504395       4.22566786
C       11.60099616       1.45777252       3.75863741
C       12.23107073       2.20653773       4.46347264
Br      13.24984801       3.41722774       5.60313160
C       -0.00445707       0.01189536      -1.78238275
H       -0.66409135       0.67374010      -2.43557963
H        0.65740317      -0.63156657      -2.45157240
C       -0.90989263      -0.90692880      -0.91072765
C        0.90977584       0.90977584      -0.90977584
C       -0.00465871       1.77757030       0.00794375
H       -0.66225468       2.44313916      -0.64384735
H        0.64322798       2.43503045       0.67728295
C       -1.78241447       0.00034974      -0.00472694
H       -2.45427497      -0.65498947       0.64260836
H       -2.43311707       0.67328779      -0.65473579
C       -0.91132561       0.90220522       0.91563759
C       -0.01476271      -0.02253852       1.78660255
H       -0.67934791      -0.69751639       2.42135241
H        0.63392994       0.61504881       2.47327442
C        0.01484550      -1.77751727      -0.01636693
H        0.67870853      -2.42144646      -0.68295456
H       -0.62264859      -2.45592969       0.64226336
C        1.78714474       0.01002794       0.00389507
H        2.44202412       0.67113390       0.66197326
H        2.45385902      -0.65136977      -0.64189061
C        0.91606151      -0.90478549       0.90901405
