53
Properties=species:S:1:pos:R:3 pbc="F F F"
C        0.00000000       0.00000000       0.00000000
C        0.88174323       0.88174323      -0.88174323
C        0.60617663       2.24504105      -0.99177242
C        1.41269249       3.05127865      -1.79820313
C        2.48650076       2.48700673      -2.48658360
C        2.76212635       1.12367493      -2.37659876
C        1.95562644       0.31748141      -1.57019639
H       -0.22991071       2.68715314      -0.45643612
H        1.19590346       4.11322760      -1.88228041
H        3.59817043       0.68154965      -2.91190581
H        2.17237127      -0.74449460      -1.48608726
C        3.31792287       3.31835804      -3.31796335
C        4.01423889       4.01461476      -4.01424388
Br       5.14012300       5.14040298      -5.14007062
C       -0.88174323      -0.88174323      -0.88174323
C       -0.80786776      -0.76501953      -2.27010281
C       -1.61432996      -1.57151056      -3.07633374
C       -2.48652732      -2.48655375      -2.48701003
C       -2.56045747      -2.60332664      -1.09861594
C       -1.75402036      -1.79685365      -0.29243023
H       -0.12909854      -0.05281707      -2.73176295
H       -1.55491404      -1.47865985      -4.15783757
H       -3.23919397      -3.31548800      -0.63694392
H       -1.81340241      -1.88966091       0.78909939
C       -3.31791535      -3.31797180      -3.31835710
C       -4.01420284      -4.01428442      -4.01461028
Br      -5.14004080      -5.14016303      -5.14039277
C       -0.88174323       0.88174323       0.88174323
C       -2.27010328       0.80785110       0.76503572
C       -3.07633421       1.61431331       1.57152675
C       -2.48701003       2.48652731       2.48655376
C       -1.09861547       2.56047412       2.60331046
C       -0.29242975       1.75403702       1.79683747
H       -2.73176379       0.12906889       0.05284588
H       -4.15783842       1.55488439       1.47868867
H       -0.63694307       3.23922362       3.31545920
H        0.78910023       1.81343206       1.88963210
C       -3.31835710       3.31791535       3.31797181
C       -4.01461027       4.01420283       4.01428442
Br      -5.14039277       5.14004080       5.14016304
C        0.88174323      -0.88174323       0.88174323
C        1.42844104      -2.05456568       0.35998338
C        2.23482370      -2.86082424       1.16652633
C        2.48676643      -2.48692698       2.48639769
C        1.94007861      -1.31408555       3.00823589
C        1.13372412      -0.50787114       2.20170898
H        1.23365798      -2.34812804      -0.66810746
H        2.65961288      -3.77415425       0.75764434
H        2.13483124      -1.02051051       4.03628415
H        0.70889662       0.40548312       2.61055042
C        3.31816140      -3.31827165       3.31781121
C        4.01445469      -4.01452280       4.01412004
Br       5.14030205      -5.14030204       5.13999252
