162
Properties=species:S:1:pos:R:3 pbc="F F F"
O        5.30903407       8.41498787      -2.44485281
C        5.74417911       7.78491356      -1.47945939
N        5.55761867       6.45003372      -1.21759997
N        4.66711077       5.63993360      -1.98299200
C        4.36755942       4.49921490      -1.34106321
H        4.72170653       4.23528388      -0.34891352
C        3.46209784       3.54065087      -2.00220800
C        2.66865836       2.70844275      -1.20373114
C        1.79357809       1.79357809      -1.79357809
C        1.70662260       1.67739752      -3.18211090
C        2.50127821       2.48847504      -3.98918398
C        3.36240248       3.41147825      -3.39989633
O        4.10726226       4.19753630      -4.24227489
N        6.49514231       8.44105651      -0.51751869
N        7.13797398       7.82326240       0.60409857
C        7.71897879       8.75932310       1.37633264
H        7.59995989       9.82897584       1.23457054
C        8.62975916       8.35193766       2.46451819
C        8.93231595       9.29638294       3.45605702
C        9.81664890       8.97999078       4.48970198
Br      10.20784657      10.27174368       5.81772588
C       10.42024591       7.72473625       4.55448733
C       10.13393218       6.77657713       3.57404767
C        9.24920740       7.09261798       2.54406182
O        9.02348221       6.12113555       1.60435412
H        5.84404351       6.19137932      -0.28296650
H        2.72670120       2.80354730      -0.12295630
H        1.02501152       0.97048700      -3.64136207
H        2.45140101       2.42298934      -5.07061508
H        4.51943121       4.86696001      -3.62725022
H        6.62588838       9.42538283      -0.67992844
H        8.46578121      10.27623788       3.41292670
H       11.10916226       7.47624943       5.35431769
H       10.59205254       5.79369016       3.59824871
H        8.33684965       6.52222215       1.00379852
O       -2.46123267      -5.27778537      -8.42985671
C       -1.49028690      -5.71114132      -7.80712384
N       -1.22240268      -5.53018109      -6.47266860
N       -1.98817134      -4.64794424      -5.65392079
C       -1.34183713      -4.35098770      -4.51501270
H       -0.34648039      -4.70129587      -4.25812767
C       -2.00266028      -3.45402559      -3.54827083
C       -1.20398009      -2.66076208      -2.71609008
C       -1.79357809      -1.79357809      -1.79357809
C       -3.18191709      -1.71451918      -1.66969476
C       -3.98907601      -2.50915421      -2.48070700
C       -3.40015287      -3.36234304      -3.41128115
O       -4.24274499      -4.10749954      -4.19682892
N       -0.52789548      -6.45360953      -8.47221250
N        0.60028972      -7.09376238      -7.86366516
C        1.37062323      -7.66581106      -8.80678142
H        1.22262963      -7.54195477      -9.87504004
C        2.46567230      -8.57298218      -8.40986876
C        3.45380676      -8.86539569      -9.36105295
C        4.49370109      -9.74593129      -9.05470750
Br       5.81695138     -10.12340393     -10.35541182
C        4.56822416     -10.35572545      -7.80299355
C        3.59129286     -10.07951569      -6.84823881
C        2.55505735      -9.19857090      -7.15425001
O        1.61929564      -8.98285602      -6.17670326
H       -0.28494186      -5.81304316      -6.22040431
H       -0.12343098      -2.71263442      -2.81713941
H       -3.64100421      -1.03902792      -0.95682846
H       -5.07039419      -2.46529610      -2.40931514
H       -3.62909865      -4.51293420      -4.87160858
H       -0.69478432      -6.58006522      -9.45635011
H        3.40309914      -8.39398426     -10.33820727
H        5.37293362     -11.04172242      -7.56230520
H        3.62304370     -10.54262816      -5.86790955
H        1.01306650      -8.29730016      -6.57103962
O       -7.15456773       7.07215487       1.94215215
C       -7.56679279       6.04929424       1.39246503
N       -6.98828176       4.80469805       1.43227255
N       -5.70264586       4.57938661       2.00800389
C       -5.18951308       3.40194563       1.61637883
H       -5.66698086       2.71899756       0.91992551
C       -3.86397163       3.00982518       2.13115989
C       -3.05793822       2.17977159       1.34312244
C       -1.79357809       1.79357809       1.79357809
C       -1.31842044       2.20877258       3.03893800
C       -2.11577798       3.02262019       3.84053905
C       -3.37037842       3.41989439       3.38350425
O       -4.10502627       4.23666860       4.20537858
N       -8.72231615       6.10170626       0.62969510
N       -9.36541420       4.98075686       0.01096676
C      -10.42000851       5.39595260      -0.71399186
H      -10.65990604       6.43762499      -0.90316584
C      -11.37048758       4.40730351      -1.26061245
C      -12.23421113       4.82277674      -2.28434600
C      -13.17956624       3.94213246      -2.81476100
Br     -14.33339800       4.52625916      -4.19779279
C      -13.28859598       2.63731981      -2.33542095
C      -12.44096848       2.21037884      -1.31488568
C      -11.49607251       3.08949761      -0.78780656
O      -10.70492249       2.61151700       0.22382416
H       -7.39210709       4.16442254       0.76185971
H       -3.42079936       1.86326693       0.36913852
H       -0.33567986       1.91300247       3.38817827
H       -1.77068761       3.36386402       4.81045380
H       -4.87229082       4.51197427       3.62937634
H       -9.15063397       7.01021692       0.57034876
H      -12.15516869       5.83746554      -2.66354185
H      -14.02294692       1.95140751      -2.74326044
H      -12.50652385       1.20190054      -0.92093040
H      -10.07828592       3.36250039       0.41448697
O        2.21328551      -5.81648059       8.13910865
C        1.34455985      -6.27115298       7.39283924
N        1.17652513      -5.98911690       6.05961033
N        1.92339849      -4.97121160       5.39542628
C        1.35227739      -4.62505363       4.23050651
H        0.42008088      -5.03388073       3.85194232
C        2.00639514      -3.58763639       3.41092518
C        1.21110398      -2.79117623       2.57855205
C        1.79357809      -1.79357809       1.79357809
C        3.17380387      -1.58418103       1.80814613
C        3.97945308      -2.37928080       2.62020334
C        3.39563842      -3.36369855       3.41444008
O        4.23396445      -4.10428157       4.20882743
N        0.40272120      -7.15286901       7.89812729
N       -0.60372081      -7.82750132       7.13335731
C       -1.39500051      -8.54984359       7.94712617
H       -1.35168370      -8.51480334       9.03124554
C       -2.36163910      -9.50638415       7.37243359
C       -3.39595151      -9.97085030       8.19774309
C       -4.31817566     -10.90475470       7.72035866
Br      -5.70690754     -11.51527968       8.85349224
C       -4.22712544     -11.39819201       6.41942827
C       -3.20209314     -10.95042436       5.58813042
C       -2.28350774     -10.01639713       6.06487417
O       -1.29165767      -9.63002472       5.20189659
H        0.29500845      -6.32650666       5.69687422
H        0.13556244      -2.94500572       2.57263665
H        3.62685147      -0.80765783       1.20235129
H        5.05396256      -2.23612492       2.65491794
H        3.60547844      -4.62265035       4.78551264
H        0.49556420      -7.35655959       8.87907586
H       -3.47400295      -9.59087743       9.21221791
H       -4.94003220     -12.12510893       6.04601726
H       -3.10574758     -11.32023788       4.57300370
H       -0.78877698      -8.93506299       5.70898727
C       -0.00445707       0.01189536      -1.78238275
H       -0.66409135       0.67374010      -2.43557963
H        0.65740317      -0.63156657      -2.45157240
C       -0.90989263      -0.90692880      -0.91072765
C        0.90977584       0.90977584      -0.90977584
C       -0.00465871       1.77757030       0.00794375
H       -0.66225468       2.44313916      -0.64384735
H        0.64322798       2.43503045       0.67728295
C       -1.78241447       0.00034974      -0.00472694
H       -2.45427497      -0.65498947       0.64260836
H       -2.43311707       0.67328779      -0.65473579
C       -0.91132561       0.90220522       0.91563759
C       -0.01476271      -0.02253852       1.78660255
H       -0.67934791      -0.69751639       2.42135241
H        0.63392994       0.61504881       2.47327442
C        0.01484550      -1.77751727      -0.01636693
H        0.67870853      -2.42144646      -0.68295456
H       -0.62264859      -2.45592969       0.64226336
C        1.78714474       0.01002794       0.00389507
H        2.44202412       0.67113390       0.66197326
H        2.45385902      -0.65136977      -0.64189061
C        0.91606151      -0.90478549       0.90901405
