169
Properties=species:S:1:pos:R:3 pbc="F F F"
C        0.00000000       0.00000000       0.00000000
C        0.88157743       0.88157743      -0.88157743
C        1.66680308       0.30363510      -1.87601648
C        2.47241009       1.11422005      -2.68028396
C        2.48753410       2.50393919      -2.50836822
C        1.69748979       3.06908123      -1.50281828
C        0.89761943       2.25886149      -0.68826083
N        3.31585843       3.25098248      -3.36330148
C        3.39390488       4.62685360      -3.48402760
O        2.71569550       5.45104478      -2.88144434
C        4.40900855       5.04367682      -4.46870462
C        4.66642075       6.36152120      -4.90086678
C        5.70914052       6.26556839      -5.78811255
N        6.36520680       7.22153949      -6.50586675
C        7.36576495       6.82867999      -7.24337919
C        7.84796452       5.41211311      -7.30845850
C        7.14621690       4.50286223      -6.60317442
N        6.05647076       4.91345582      -5.84317045
N        5.22529828       4.15894265      -5.07507170
C        7.48386630       3.06240320      -6.55740052
F        6.54425302       2.29336255      -7.16427871
F        8.65381142       2.80527458      -7.20770534
F        7.64923336       2.59012715      -5.29793558
C        8.10263766       7.83852676      -8.06130675
C        8.16150978       9.16114273      -7.59826353
C        8.83311560      10.14031348      -8.33516115
C        9.44017573       9.80027204      -9.54178298
C        9.37407990       8.49336051     -10.02231880
C        8.70105423       7.51237525      -9.28622711
H        1.65794228      -0.77169845      -2.03411977
H        3.07758082       0.64470386      -3.45461405
H        1.68930934       4.13782043      -1.31544064
H        0.29481991       2.71931208       0.09047189
H        3.92594725       2.74876149      -4.00389374
H        4.15873300       7.26610243      -4.59687931
H        8.73035458       5.15261436      -7.88005554
H        7.68404141       9.43734332      -6.65967375
H        8.87126349      11.16041455      -7.96080050
H        9.83349614       8.23082977     -10.97242657
H        8.63449650       6.51233032      -9.70422737
C       10.13309378      10.80703135     -10.30329482
C       10.71341265      11.65019226     -10.94106098
Br      11.65173918      13.01351215     -11.97227493
C       -0.88157743      -0.88157743      -0.88157743
C       -2.22365377      -0.55793727      -1.06486361
C       -3.02690569      -1.36777932      -1.87222909
C       -2.49388209      -2.49334236      -2.51261706
C       -1.14604682      -2.80809728      -2.31524521
C       -0.34130916      -2.00506086      -1.49837174
N       -3.36330798      -3.25098723      -3.31584717
C       -3.04635419      -4.30668859      -4.15174331
O       -1.92553228      -4.75178000      -4.37087234
C       -4.23753955      -4.87457592      -4.80927451
C       -4.25036889      -5.88567171      -5.79276813
C       -5.57369398      -6.10871782      -6.08040967
N       -6.16744343      -6.97397748      -6.95119212
C       -7.47070859      -6.99497503      -6.97214051
C       -8.33260828      -6.16129486      -6.07463298
C       -7.69585250      -5.30217352      -5.25422754
N       -6.30616320      -5.25214233      -5.25479150
N       -5.48549690      -4.45917518      -4.51464054
C       -8.39309217      -4.40524065      -4.30533720
F       -8.26263467      -3.09682730      -4.64243231
F       -9.73321689      -4.65272619      -4.28084826
F       -7.96802765      -4.54334170      -3.02592675
C       -8.16477846      -7.91421795      -7.92347476
C       -7.52414426      -9.10692332      -8.28984847
C       -8.13297499      -9.99241111      -9.18320414
C       -9.38074073      -9.68246709      -9.71902294
C      -10.02056344      -8.49207643      -9.37711933
C       -9.41168404      -7.60414898      -8.48382358
H       -2.65228082       0.31950387      -0.58758666
H       -4.07344200      -1.09738629      -2.00607045
H       -0.69017091      -3.68042574      -2.77197376
H        0.70295024      -2.27127448      -1.35533587
H       -4.34942128      -3.00152034      -3.32766085
H       -3.40072698      -6.39109809      -6.22988966
H       -9.40984679      -6.27168085      -6.08149684
H       -6.54576003      -9.35401363      -7.88128483
H       -7.62369794     -10.91381869      -9.45496191
H      -10.98718210      -8.24162368      -9.80794670
H       -9.91717213      -6.66810277      -8.26577929
C      -10.01070332     -10.59299604     -10.63972059
C      -10.53829699     -11.35556404     -11.41080487
Br     -11.39137133     -12.58857199     -12.65758294
C       -0.88157743       0.88157743       0.88157743
C       -1.78532402       1.76485171       0.29627893
C       -2.58992504       2.57006274       1.10692632
C       -2.50936414       2.48789309       2.50258428
C       -1.59400639       1.59987884       3.07550408
C       -0.77882696       0.79968028       2.26623451
N       -3.35883190       3.32299521       3.24831527
C       -3.56491384       3.32363255       4.61623969
O       -3.06103378       2.55753997       5.42961088
C       -4.51028691       4.37371224       5.03739084
C       -5.01161982       4.57709297       6.34009594
C       -5.82445973       5.67995079       6.25841095
N       -6.56172619       6.32154460       7.20934223
C       -7.20848434       7.39089795       6.83844183
C       -7.15013563       7.96297565       5.45542483
C       -6.43119096       7.27382127       4.54724132
N       -5.76871495       6.11306630       4.93131579
N       -5.00541027       5.28131205       4.17259031
C       -6.26980292       7.69611136       3.13775574
F       -6.88159664       6.84787279       2.27242485
F       -6.82818498       8.92002172       2.91858464
F       -4.97414353       7.80699220       2.75616036
C       -8.04407014       8.11623920       7.84216183
C       -7.66644610       8.06260039       9.19186956
C       -8.42334607       8.71949776      10.16574640
C       -9.56509876       9.42461348       9.79251852
C       -9.96162533       9.47124020       8.45689367
C       -9.20549618       8.81309407       7.48106635
H       -1.87246074       1.83291570      -0.78501284
H       -3.29273824       3.25281068       0.63134981
H       -1.47833384       1.51332165       4.15091492
H       -0.07088512       0.11956408       2.73321090
H       -3.92599498       4.00384898       2.74875852
H       -4.79987175       3.99553374       7.22630925
H       -7.64775016       8.89546659       5.21980773
H       -6.77941143       7.50815660       9.49349045
H       -8.11538628       8.66976314      11.20732913
H      -10.86214760      10.00761980       8.16698508
H       -9.55999492       8.83617131       6.45488796
C      -10.34701306      10.10265274      10.79375415
C      -11.00186630      10.67051062      11.63228898
Br     -12.06070859      11.58868878      12.98812889
C        0.88157743      -0.88157743       0.88157743
C        0.29692499      -1.80732049       1.74220917
C        1.10756187      -2.61184021       2.54751203
C        2.50290749      -2.50913916       2.48779486
C        3.07507846      -1.57190093       1.62240992
C        2.26558311      -0.75686082       0.82229782
N        3.24887733      -3.35994254       3.32132251
C        4.61961480      -3.54549391       3.33967737
O        5.43661406      -3.01789166       2.59367891
C        5.03931678      -4.50031301       4.38176020
C        6.34630295      -4.98510871       4.59739708
C        6.26047698      -5.81576071       5.68658378
N        7.21279287      -6.54837109       6.33144907
C        6.83579337      -7.21680243       7.38522833
C        5.44363366      -7.18788727       7.93701518
C        4.53504698      -6.47223073       7.24497584
N        4.92634780      -5.78649759       6.10025163
N        4.16864675      -5.02208325       5.26858263
C        3.11710159      -6.33841811       7.64815032
F        2.27398053      -6.95013514       6.77777860
F        2.88813722      -6.91857109       8.86008303
F        2.71422608      -5.05045722       7.77261281
C        7.84112666      -8.04819263       8.11315188
C        9.18558699      -7.64961846       8.08571059
C       10.16091256      -8.40174687       8.74593080
C        9.79457134      -9.55955504       9.42810437
C        8.46458322      -9.97670980       9.44846618
C        7.48733806      -9.22536226       8.78695628
H       -0.78381475      -1.91167172       1.79250664
H        0.63255453      -3.33200205       3.21234216
H        4.14978166      -1.43882722       1.55396153
H        2.73187487      -0.03174037       0.16004486
H        2.74786047      -3.94481561       3.98592639
H        7.23780629      -4.75128720       4.03262126
H        5.20166865      -7.70310070       8.85825514
H        9.48195434      -6.74983462       7.54926952
H       11.19831916      -8.07749657       8.71666281
H        8.18040126     -10.88952797       9.96682326
H        6.46643946      -9.59550469       8.78911004
C       10.79731317     -10.33660377      10.10950301
C       11.63710945     -10.98738208      10.68017437
Br      12.99498900     -12.03963557      11.60290169
