186
Properties=species:S:1:pos:R:3 pbc="F F F"
C        1.79146701       1.79146701      -1.79146701
C        2.21313872       1.32537214      -3.03413704
C        3.01765192       2.13554755      -3.83964525
C        3.39573765       3.41624512      -3.40940682
C        2.98113952       3.86649873      -2.14884750
C        2.17454728       3.05496081      -1.34363468
C        4.25115204       4.24273866      -4.31357314
N        5.06918169       3.64199329      -5.13136686
C        5.82409410       4.42957207      -5.94978131
C        6.76858508       4.10899936      -6.89291697
C        7.20587686       5.33811067      -7.43005717
N        6.57107715       6.37983652      -6.85387509
N        5.73119783       5.82272627      -5.94191859
C        4.85025472       6.46181339      -5.07747607
C        4.08455294       5.73065404      -4.24341987
C        4.81101011       7.93948344      -5.14883438
F        4.40341479       8.39478977      -6.35989556
F        3.93872616       8.46015367      -4.24038943
F        6.01135387       8.51178760      -4.88002168
C        8.21850876       5.53536717      -8.48501434
O        8.79632762       4.58097761      -8.99058074
N        8.37962861       6.87172008      -8.77503106
C        9.26284604       7.41822029      -9.70266125
C        9.26236211       8.80437705      -9.84493978
C       10.13740705       9.39815948     -10.75643533
C       10.98687824       8.58967170     -11.49783144
C       10.92476249       7.22231010     -11.29917114
N       10.08172782       6.62966068     -10.42003635
H        1.92687966       0.33709801      -3.38524184
H        3.34550998       1.76105692      -4.80819163
H        3.29110172       4.83101843      -1.75792491
H        1.85790331       3.41296538      -0.36671125
H        7.10101367       3.11678393      -7.16480938
H        3.35935931       6.17805479      -3.57632693
H        7.78645122       7.49389055      -8.23727549
H        8.59524498       9.42899668      -9.26001281
H       10.14640121      10.47755157     -10.87520943
H       11.56251079       6.53517029     -11.84775292
C       11.90741981       9.16166079     -12.44600425
C       12.67837337       9.64070166     -13.24009899
Br      13.92494008      10.41527023     -14.52408301
C       -1.79146701      -1.79146701      -1.79146701
C       -2.48674647      -2.85823552      -1.22766591
C       -3.29471452      -3.66152262      -2.03660758
C       -3.41664982      -3.39596245      -3.40877731
C       -2.69699159      -2.33152527      -3.96796890
C       -1.88925803      -1.52704619      -3.15683855
C       -4.29934120      -4.28259248      -4.22553015
N       -4.45954620      -5.52329951      -3.85969614
C       -5.28259100      -6.29791186      -4.62294462
C       -5.63957119      -7.61875627      -4.51217395
C       -6.52720672      -7.86637196      -5.58046602
N       -6.71842182      -6.75914769      -6.32721925
N       -5.94946436      -5.80159575      -5.74478257
C       -5.78685200      -4.47534077      -6.12735141
C       -4.98012112      -3.66766205      -5.41084369
C       -6.54302016      -4.03533083      -7.32097693
F       -7.88612560      -4.12087227      -7.15110225
F       -6.28622007      -2.73119334      -7.62185585
F       -6.22628017      -4.74184628      -8.43503671
C       -7.19721686      -9.14159953      -5.90007388
O       -7.00453656     -10.14251729      -5.22083211
N       -8.01063977      -9.01225276      -7.00348721
C       -8.77484410     -10.01639608      -7.59248739
C       -9.53622498      -9.66887424      -8.70657972
C      -10.31131684     -10.64462930      -9.33605571
C      -10.30210810     -11.93806789      -8.83420537
C       -9.52104422     -12.20161698      -7.72358253
N       -8.76394293     -11.26723591      -7.10024602
H       -2.40695574      -3.07660251      -0.16566126
H       -3.83166046      -4.49564710      -1.58745098
H       -2.72548131      -2.12156040      -5.03300334
H       -1.33433833      -0.70330945      -3.59993216
H       -5.30748742      -8.31786149      -3.75725807
H       -4.84692975      -2.61997281      -5.64683847
H       -8.02704620      -8.08259778      -7.40797329
H       -9.53643684      -8.65492367      -9.09289396
H      -10.90806848     -10.38553606     -10.20555768
H       -9.47027568     -13.19284397      -7.28231435
C      -11.08414694     -12.97528366      -9.45565425
C      -11.73910447     -13.84395187      -9.97611769
Br     -12.79811539     -15.24851488     -10.81766304
C       -1.79146701       1.79146701       1.79146701
C       -2.39870009       2.92240780       1.25154000
C       -3.20696384       3.72565775       2.06022313
C       -3.41729135       3.39642902       3.40766922
C       -2.78537604       2.26671958       3.94439014
C       -1.97728827       1.46240724       3.13344727
C       -4.29617554       4.28646383       4.22482447
N       -4.37166000       5.55135495       3.91952689
C       -5.19394634       6.32920256       4.68029858
C       -5.47543354       7.67154258       4.62352530
C       -6.40609723       7.91161627       5.65633120
N       -6.69493510       6.77929839       6.33055527
N       -5.94594007       5.81261912       5.73728350
C       -5.87340136       4.46142439       6.05471842
C       -5.07164975       3.64907433       5.33790277
C       -6.71544221       4.00214773       7.18173798
F       -8.04102057       4.16963950       6.94744006
F       -6.54337349       2.67209287       7.42380289
F       -6.42387704       4.63163540       8.34765071
C       -7.02560656       9.20327834       6.01000537
O       -6.74450398      10.22601400       5.39736799
N       -7.90371609       9.06158500       7.06107866
C       -8.64591646      10.07412364       7.66368748
C       -9.48401785       9.71147759       8.71618350
C      -10.24075727      10.69420664       9.35703795
C      -10.13714469      12.00946853       8.92776815
C       -9.28395598      12.28712492       7.87516282
N       -8.54334816      11.34631742       7.24175927
H       -2.24979106       3.19081212       0.20861633
H       -3.67462971       4.61002379       1.63010503
H       -2.88285999       2.00373327       4.99345179
H       -1.49083022       0.58773137       3.55901835
H       -5.06682356       8.38962524       3.92615819
H       -5.00600796       2.58485551       5.52287756
H       -7.99033967       8.11451126       7.41276635
H       -9.55786679       8.68040402       9.04598365
H      -10.89675030      10.42341318      10.17899873
H       -9.15786818      13.29562368       7.49194214
C      -10.89718875      13.05427927       9.56361684
C      -11.53372565      13.92930826      10.09614012
Br     -12.56295197      15.34415613      10.95718522
C        1.79146701      -1.79146701       1.79146701
C        1.80098313      -1.60076892       3.17089586
C        2.60681741      -2.41087151       3.97515580
C        3.39841013      -3.41870097       3.40427848
C        3.39501466      -3.58819574       2.01327535
C        2.58679666      -2.77732896       1.20901715
C        4.23577966      -4.26011205       4.31157212
N        4.67051621      -3.74491376       5.42711187
C        5.42092885      -4.54767920       6.23483944
C        6.02389331      -4.30307596       7.44353215
C        6.65417559      -5.51138611       7.80848299
N        6.46005981      -6.46778617       6.87694277
N        5.71170812      -5.87413852       5.90999605
C        5.23800336      -6.42596328       4.72557754
C        4.49597896      -5.67425073       3.88839716
C        5.58540781      -7.84198473       4.47193539
F        5.07128501      -8.68257152       5.40424359
F        5.09707830      -8.26883176       3.27335919
F        6.92436427      -8.05523035       4.42356853
C        7.43761702      -5.76927945       9.03199379
O        7.61660667      -4.88782335       9.86345594
N        7.88922706      -7.06954419       9.06760851
C        8.67214588      -7.64836238      10.06321932
C        9.01636322      -8.98942071       9.90589501
C        9.80776388      -9.61002359      10.87421439
C       10.23194640      -8.87237822      11.97005674
C        9.84581685      -7.54688360      12.05354327
N        9.07801010      -6.92937161      11.12404314
H        1.19129311      -0.82706638       3.63086003
H        2.61045672      -2.25187084       5.05243097
H        4.02891509      -4.32384461       1.52728536
H        2.59099828      -2.91622165       0.13036001
H        6.01111638      -3.37443493       7.99705567
H        4.07541923      -6.06659392       2.97172789
H        7.61279741      -7.63335348       8.27146638
H        8.68101618      -9.55830236       9.04493593
H       10.08293425     -10.65448815      10.76173981
H       10.14430180      -6.91559722      12.88553499
C       11.05251320      -9.47286521      12.98970644
C       11.73973789      -9.97577306      13.84366307
Br      12.85092209     -10.78893253      15.22443871
C       -0.00445707       0.01189536      -1.78238275
H       -0.66409135       0.67374010      -2.43557963
H        0.65740317      -0.63156657      -2.45157240
C       -0.90989263      -0.90692880      -0.91072765
C        0.90977584       0.90977584      -0.90977584
C       -0.00465871       1.77757030       0.00794375
H       -0.66225468       2.44313916      -0.64384735
H        0.64322798       2.43503045       0.67728295
C       -1.78241447       0.00034974      -0.00472694
H       -2.45427497      -0.65498947       0.64260836
H       -2.43311707       0.67328779      -0.65473579
C       -0.91132561       0.90220522       0.91563759
C       -0.01476271      -0.02253852       1.78660255
H       -0.67934791      -0.69751639       2.42135241
H        0.63392994       0.61504881       2.47327442
C        0.01484550      -1.77751727      -0.01636693
H        0.67870853      -2.42144646      -0.68295456
H       -0.62264859      -2.45592969       0.64226336
C        1.78714474       0.01002794       0.00389507
H        2.44202412       0.67113390       0.66197326
H        2.45385902      -0.65136977      -0.64189061
C        0.91606151      -0.90478549       0.90901405
