157
Properties=species:S:1:pos:R:3 pbc="F F F"
C        0.00000000       0.00000000       0.00000000
C        0.88156299       0.88156299      -0.88156299
C        1.30323469       0.41546812      -2.12423302
C        2.10774789       1.22564353      -2.92974122
C        2.48583363       2.50634109      -2.49950279
C        2.07123550       2.95659471      -1.23894348
C        1.26464326       2.14505679      -0.43373065
C        3.34124802       3.33283463      -3.40366911
N        4.15927767       2.73208927      -4.22146284
C        4.91419008       3.51966805      -5.03987728
C        5.85868106       3.19909534      -5.98301294
C        6.29597283       4.42820665      -6.52015314
N        5.66117312       5.46993250      -5.94397107
N        4.82129381       4.91282225      -5.03201456
C        3.94035069       5.55190936      -4.16757205
C        3.17464892       4.82075001      -3.33351585
C        3.90110608       7.02957941      -4.23893035
F        3.49351077       7.48488575      -5.44999153
F        3.02882214       7.55024964      -3.33048540
F        5.10144985       7.60188357      -3.97011766
C        7.30860473       4.62546315      -7.57511032
O        7.88642359       3.67107359      -8.08067671
N        7.46972458       5.96181606      -7.86512703
C        8.35294201       6.50831627      -8.79275723
C        8.35245808       7.89447303      -8.93503576
C        9.22750302       8.48825545      -9.84653131
C       10.07697421       7.67976767     -10.58792741
Br      11.28116445       8.42800514     -11.82826298
C       10.01485846       6.31240608     -10.38926711
N        9.17182380       5.71975666      -9.51013232
H        1.01697564      -0.57280601      -2.47533781
H        2.43560596       0.85115290      -3.89828761
H        2.38119770       3.92111440      -0.84802088
H        0.94799928       2.50306136       0.54319277
H        6.19110964       2.20687991      -6.25490536
H        2.44945529       5.26815076      -2.66642291
H        6.87654720       6.58398653      -7.32737147
H        7.68534095       8.51909266      -8.35010879
H        9.23649718       9.56764755      -9.96530541
H       10.65260676       5.62526627     -10.93784890
C       -0.88156299      -0.88156299      -0.88156299
C       -0.88894679      -2.26126116      -0.69272787
C       -1.69874933      -3.06501988      -1.49936343
C       -2.50926624      -2.49175232      -2.49065895
C       -2.47865687      -1.10418648      -2.68393033
C       -1.66839978      -0.30018583      -1.87484509
C       -3.36053224      -3.39729074      -3.31992878
N       -2.95902454      -4.61845356      -3.53535167
C       -3.76898839      -5.41865942      -4.28608760
C       -3.62558140      -6.72162369      -4.69358426
C       -4.78585614      -7.01963305      -5.43884343
N       -5.61693003      -5.95860473      -5.49954193
N       -4.98947344      -4.97638817      -4.80026901
C       -5.42200552      -3.67750607      -4.56032052
C       -4.65695704      -2.84323379      -3.82872395
C       -6.73353148      -3.30208913      -5.13399525
F       -7.75518055      -4.04041939      -4.63278812
F       -7.04313101      -2.00272932      -4.86369686
F       -6.77000010      -3.41823493      -6.48521605
C       -5.11565201      -8.30044222      -6.09308396
O       -4.34584600      -9.25174341      -6.04058449
N       -6.34163809      -8.23824822      -6.71678136
C       -6.95431293      -9.25536196      -7.44434062
C       -8.20628998      -8.98338171      -7.99229518
C       -8.85507344      -9.96971456      -8.73750178
C       -8.23362026     -11.19762749      -8.91342155
Br      -9.06127306     -12.56250501      -9.91365449
C       -6.99164367     -11.38921304      -8.33567493
N       -6.34848035     -10.44396964      -7.60926279
H       -0.27004816      -2.72238843       0.07292915
H       -1.69509325      -4.14321651      -1.34673671
H       -3.05348615      -0.62565755      -3.47118928
H       -1.65113966       0.77576055      -2.03248876
H       -2.79376362      -7.37859738      -4.48053391
H       -4.96428857      -1.83462713      -3.58511326
H       -6.81659453      -7.34720117      -6.62410950
H       -8.68433371      -8.01968610      -7.85052258
H       -9.83070746      -9.76876689      -9.16997579
H       -6.45277408     -12.32696807      -8.43597979
C       -0.88156299       0.88156299       0.88156299
C       -2.05271724       1.42770247       0.36251612
C       -2.85864828       2.23189300       1.17259136
C       -2.50098046       2.48542610       2.50527095
C       -1.31033755       1.94608291       3.01035322
C       -0.50474339       1.13994253       2.19874478
C       -3.40269944       3.34655931       3.32849300
N       -4.11321183       4.26427406       2.73534388
C       -4.93375713       5.02169267       3.51828561
C       -5.78124052       6.05498220       3.20456662
C       -6.37772180       6.44417985       4.42243097
N       -5.92799933       5.69599651       5.45108085
N       -5.03780986       4.83079568       4.89752508
C       -4.28821834       3.84428174       5.52733202
C       -3.45713929       3.07098382       4.80079167
C       -4.47368932       3.70680092       6.98912560
F       -5.74135247       3.36096301       7.32607257
F       -3.67076768       2.73389421       7.50489529
F       -4.16523539       4.84018725       7.66802844
C       -7.37079714       7.51731189       4.62106917
O       -7.76088951       8.19734163       3.67994275
N       -7.74899208       7.60559018       5.94208542
C       -8.65092367       8.51582839       6.48726345
C       -8.89729223       8.42869491       7.85597973
C       -9.78732500       9.32626154       8.44870324
C      -10.40392966      10.28407182       7.65666781
Br     -11.60959464      11.52303685       8.40480108
C      -10.10730090      10.30335586       6.30587489
N       -9.24729219       9.43999588       5.71442471
H       -2.34733315       1.23897192      -0.66679764
H       -3.77066280       2.65755440       0.75682925
H       -0.97265462       2.15704841       4.02062995
H        0.41763809       0.72596040       2.59954556
H       -5.95329159       6.47592124       2.22368209
H       -2.87840327       2.26778070       5.23784498
H       -7.30284061       6.93119628       6.55386830
H       -8.40960260       7.67701724       8.46792256
H       -9.98645221       9.26833576       9.51466217
H      -10.55617583      11.02746685       5.63207925
C        0.88156299      -0.88156299       0.88156299
C        0.40759085      -1.31988330       2.11546168
C        1.21574736      -2.12866345       2.91872183
C        2.49568675      -2.50835158       2.48763918
C        2.96893997      -2.04514378       1.25268993
C        2.15841884      -1.23640255       0.44860931
C        3.31461646      -3.37975214       3.38338316
N        3.13703698      -3.30342046       4.67237234
C        3.89378842      -4.12348648       5.45646051
C        3.95091562      -4.26970849       6.82016524
C        4.91074646      -5.27612468       7.05746149
N        5.43305779      -5.73910783       5.90291107
N        4.81555748      -5.02686295       4.92371019
C        4.99588304      -5.11551263       3.54843644
C        4.27712020      -4.32361082       2.72818376
C        5.98447368      -6.10993761       3.07520455
F        5.64497795      -7.38215690       3.40125321
F        6.10176366      -6.09019805       1.71759548
F        7.23190068      -5.88340890       3.55814151
C        5.33709876      -5.80456248       8.36751696
O        4.86361493      -5.36598682       9.40857214
N        6.28018929      -6.79684260       8.21963579
C        6.91235329      -7.49900956       9.24265266
C        7.83760048      -8.47265825       8.87170814
C        8.50315361      -9.19601576       9.86312041
C        8.22496616      -8.92469692      11.19500622
Br       9.09716942      -9.86688537      12.57337778
C        7.29217701      -7.94411207      11.48024257
N        6.63684830      -7.23355013      10.53131436
H       -0.58297646      -1.03847089       2.46401301
H        0.83795913      -2.46349098       3.88359635
H        3.97099730      -2.27577017       0.90356552
H        2.53448665      -0.88158190      -0.50820069
H        3.37381849      -3.72478431       7.55429210
H        4.35555350      -4.37823009       1.65024537
H        6.52153248      -7.00854386       7.25782885
H        8.04972469      -8.67735042       7.82746729
H        9.22689364      -9.95668076       9.58587574
H        7.02973508      -7.68426118      12.50172567
