178
Properties=species:S:1:pos:R:3 pbc="F F F"
C        1.79146701       1.79146701      -1.79146701
C        2.21313872       1.32537214      -3.03413704
C        3.01765192       2.13554755      -3.83964525
C        3.39573765       3.41624512      -3.40940682
C        2.98113952       3.86649873      -2.14884750
C        2.17454728       3.05496081      -1.34363468
C        4.25115204       4.24273866      -4.31357314
N        5.06918169       3.64199329      -5.13136686
C        5.82409410       4.42957207      -5.94978131
C        6.76858508       4.10899936      -6.89291697
C        7.20587686       5.33811067      -7.43005717
N        6.57107715       6.37983652      -6.85387509
N        5.73119783       5.82272627      -5.94191859
C        4.85025472       6.46181339      -5.07747607
C        4.08455294       5.73065404      -4.24341987
C        4.81101011       7.93948344      -5.14883438
F        4.40341479       8.39478977      -6.35989556
F        3.93872616       8.46015367      -4.24038943
F        6.01135387       8.51178760      -4.88002168
C        8.21850876       5.53536717      -8.48501434
O        8.79632762       4.58097761      -8.99058074
N        8.37962861       6.87172008      -8.77503106
C        9.26284604       7.41822029      -9.70266125
C        9.26236211       8.80437705      -9.84493978
C       10.13740705       9.39815948     -10.75643533
C       10.98687824       8.58967170     -11.49783144
Br      12.19106848       9.33790916     -12.73816701
C       10.92476249       7.22231010     -11.29917114
N       10.08172782       6.62966068     -10.42003635
H        1.92687966       0.33709801      -3.38524184
H        3.34550998       1.76105692      -4.80819163
H        3.29110172       4.83101843      -1.75792491
H        1.85790331       3.41296538      -0.36671125
H        7.10101367       3.11678393      -7.16480938
H        3.35935931       6.17805479      -3.57632693
H        7.78645122       7.49389055      -8.23727549
H        8.59524498       9.42899668      -9.26001281
H       10.14640121      10.47755157     -10.87520943
H       11.56251079       6.53517029     -11.84775292
C       -1.79146701      -1.79146701      -1.79146701
C       -2.46441657      -2.87522787      -1.23300345
C       -3.27246142      -3.67850265      -2.04188065
C       -3.41682201      -3.39607298      -3.40849459
C       -2.71940330      -2.31437058      -3.96271187
C       -1.91157898      -1.50993693      -3.15162686
C       -4.29855422      -4.28359580      -4.22531381
N       -4.43689141      -5.53122989      -3.87442055
C       -5.25977108      -6.30666155      -4.63701485
C       -5.59726469      -7.63366489      -4.53957183
C       -6.49605466      -7.87895170      -5.59903834
N       -6.71249603      -6.76444120      -6.32785153
N       -5.94865639      -5.80439688      -5.74278941
C       -5.80930142      -4.47097092      -6.10927184
C       -5.00382278      -3.66206978      -5.39273430
C       -6.58768805      -4.02525580      -7.28638407
F       -7.92705072      -4.13153343      -7.09951598
F       -6.35274100      -2.71375632      -7.57277193
F       -6.27673699      -4.71219229      -8.41423387
C       -7.15305018      -9.15881481      -5.92702528
O       -6.93751182     -10.16610364      -5.26427051
N       -7.98323193      -9.02571398      -7.01743384
C       -8.74177813     -10.03218678      -7.60976267
C       -9.52303068      -9.68009188      -8.70855638
C      -10.29340308     -10.65778278      -9.34081599
C      -10.25977507     -11.95765453      -8.85695178
Br     -11.27537631     -13.31725457      -9.67451376
C       -9.46002873     -12.22547491      -7.76074009
N       -8.70716724     -11.28931422      -7.13494339
H       -2.36709294      -3.10684911      -0.17527746
H       -3.79183431      -4.52593425      -1.59698997
H       -2.76536323      -2.09040413      -5.02427769
H       -1.37401162      -0.67272638      -3.59084194
H       -5.24539909      -8.33830782      -3.79890007
H       -4.88809505      -2.60954804      -5.61609793
H       -8.01778926      -8.09097635      -7.40885166
H       -9.54228910      -8.66109814      -9.08086723
H      -10.90549884     -10.39515291     -10.19851047
H       -9.38977607     -13.22179947      -7.33385847
C       -1.79146701       1.79146701       1.79146701
C       -2.38485009       2.93182691       1.25597090
C       -3.19315865       3.73507374       2.06461233
C       -3.41738333       3.39650975       3.40749650
C       -2.79928292       2.25720242       3.94000041
C       -1.99114031       1.45291335       3.12908911
C       -4.29566261       4.28705257       4.22474865
N       -4.35817938       5.55500066       3.92936181
C       -5.18032076       6.33335832       4.68976840
C       -5.45025319       7.67841363       4.64183459
C       -6.38745763       7.91769277       5.66889429
N       -6.69121157       6.78229586       6.33128133
N       -5.94530486       5.81434801       5.73618982
C       -5.88654584       4.46002669       6.04297165
C       -5.08558744       3.64697730       5.32606211
C       -6.74168058       3.99849035       7.15915699
F       -8.06384050       4.17891807       6.91534156
F       -6.58259776       2.66510149       7.39157000
F       -6.45463650       4.61590228       8.33262436
C       -6.99921779       9.21149983       6.02817265
O       -6.70461363      10.23687871       5.42639363
N       -7.88717004       9.06845077       7.07075894
C       -8.62598218      10.08212141       7.67562399
C       -9.47576196       9.71779056       8.71812642
C      -10.22967569      10.70145926       9.36086691
C      -10.11166224      12.01930805       8.94341109
Br     -11.10148004      13.38737233       9.77829227
C       -9.24749575      12.29853058       7.90021739
N       -8.50942892      11.35685321       7.26514273
H       -2.22507175       3.20757118       0.21657658
H       -3.64992894       4.62681084       1.63801875
H       -2.90764606       1.98639783       4.98600117
H       -1.51546147       0.57074707       3.55137141
H       -5.02995719       8.39879907       3.95385073
H       -5.03025876       2.58076128       5.50272098
H       -7.98451627       8.11926315       7.41383785
H       -9.56084487       8.68468311       9.03872649
H      -10.89468665      10.42936137      10.17511419
H       -9.10991967      13.30907093       7.52644340
C        1.79146701      -1.79146701       1.79146701
C        1.80742808      -1.59516923       3.17005059
C        2.61323844      -2.40527819       3.97432809
C        3.39835124      -3.41867663       3.40436172
C        3.38854991      -3.59384392       2.01409193
C        2.58035900      -2.78296099       1.20982278
C        4.23599141      -4.25980165       4.31167078
N        4.67740924      -3.74183478       5.42329783
C        5.42784313      -4.54436491       6.23123944
C        6.03676186      -4.29729843       7.43644112
C        6.66359028      -5.50668410       7.80377031
N        6.46174030      -6.46608096       6.87696750
N        5.71185811      -5.87332478       5.91065980
C        5.23104004      -6.42803919       4.73046494
C        4.48866448      -5.67671599       3.89324638
C        5.57160534      -7.84650101       4.48122157
F        5.05788200      -8.68114903       5.41906910
F        5.07661581      -8.27623764       3.28641581
F        6.90946849      -8.06543980       4.42825486
C        7.45098856      -5.76278635       9.02511536
O        7.63699513      -4.87867941       9.85221143
N        7.89741909      -7.06473828       9.06422238
C        8.68204620      -7.64268998      10.05899140
C        9.02012661      -8.98578291       9.90576942
C        9.81295243      -9.60566505      10.87338438
C       10.24464534      -8.86529206      11.96444397
Br      11.32030239      -9.64974820      13.29709405
C        9.86428651      -7.53789245      12.04406476
N        9.09520099      -6.92103927      11.11518459
H        1.20280182      -0.81709448       3.62932321
H        2.62195225      -2.24188901       5.05091728
H        4.01743492      -4.33407151       1.52853862
H        2.57956256      -2.92628039       0.13173700
H        6.03005661      -3.36635658       7.98619380
H        4.06274245      -6.07107465       2.97992393
H        7.61541841      -7.63065913       8.27153974
H        8.67892258      -9.55679917       9.04853272
H       10.08338432     -10.65170218      10.76407571
H       10.16876535      -6.90443960      12.87222906
C       -0.00445707       0.01189536      -1.78238275
H       -0.66409135       0.67374010      -2.43557963
H        0.65740317      -0.63156657      -2.45157240
C       -0.90989263      -0.90692880      -0.91072765
C        0.90977584       0.90977584      -0.90977584
C       -0.00465871       1.77757030       0.00794375
H       -0.66225468       2.44313916      -0.64384735
H        0.64322798       2.43503045       0.67728295
C       -1.78241447       0.00034974      -0.00472694
H       -2.45427497      -0.65498947       0.64260836
H       -2.43311707       0.67328779      -0.65473579
C       -0.91132561       0.90220522       0.91563759
C       -0.01476271      -0.02253852       1.78660255
H       -0.67934791      -0.69751639       2.42135241
H        0.63392994       0.61504881       2.47327442
C        0.01484550      -1.77751727      -0.01636693
H        0.67870853      -2.42144646      -0.68295456
H       -0.62264859      -2.45592969       0.64226336
C        1.78714474       0.01002794       0.00389507
H        2.44202412       0.67113390       0.66197326
H        2.45385902      -0.65136977      -0.64189061
C        0.91606151      -0.90478549       0.90901405
