197
Properties=species:S:1:pos:R:3 pbc="F F F"
C        0.00000000       0.00000000       0.00000000
C        0.88193628       0.88193628      -0.88193628
C        0.90127684       0.68115567      -2.25994643
C        1.71184129       1.48630664      -3.05977406
C        2.49220218       2.49325121      -2.48312272
C        2.46296981       2.69966015      -1.10243372
O        3.20642209       3.63058644      -0.42711763
C        3.52874459       4.81812897      -1.15458954
C        4.22205733       5.82154408      -0.25613126
C        3.95360778       5.90261156       1.11580519
C        4.57198479       6.87588402       1.90625008
C        5.47454470       7.78228796       1.34014643
C        5.76681229       7.70862575      -0.02541008
C        5.13043972       6.73578853      -0.81449879
C        6.82079307       8.54440289      -0.67676007
O        7.43626492       8.03851871      -1.60597597
N        7.01047855       9.81926138      -0.16539224
C        8.04809115      10.71995086      -0.51171357
C        9.00196673      10.47118677      -1.49729985
C       10.07029398      11.35424707      -1.70116947
C       10.21033933      12.52226727      -0.93482425
C        9.21506201      12.80202936       0.00885631
C        8.14669199      11.91238015       0.21540486
C       11.45753445      13.35329930      -1.14960176
N       11.50357442      14.63341500      -0.44839660
N       11.17338876      15.77255410      -1.10088868
C       11.47717053      16.73956664      -0.22840934
C       11.99239052      16.22030670       0.96418843
Br      12.55710911      17.22204338       2.43244395
C       12.00688034      14.86015072       0.80688024
C        1.66429924       1.88020401      -0.30150420
H        0.29957252      -0.10010280      -2.71688221
H        1.74471668       1.32377181      -4.13454579
H        3.13000190       3.07977294      -3.13542384
H        2.61240987       5.28245237      -1.54121335
H        4.20381485       4.57130960      -1.98152734
H        3.27093836       5.19264826       1.58144625
H        4.36397153       6.90885726       2.97377929
H        5.97118002       8.49593782       1.98983104
H        5.36849880       6.67918943      -1.87640697
H        6.37122748      10.13474895       0.54994202
H        8.95855545       9.58707691      -2.12566648
H       10.80776320      11.10456261      -2.46294571
H        9.25326308      13.70616008       0.61269297
H        7.41136915      12.15990573       0.97711825
H       11.58724141      13.57157325      -2.21639015
H       12.33183418      12.78360845      -0.81017246
H       11.31461275      17.77159141      -0.51057825
H       12.33113284      14.05421453       1.44953629
H        1.65516003       2.03290433       0.77381722
C       -0.88193628      -0.88193628      -0.88193628
C       -1.24228167      -2.15448242      -0.44561484
C       -2.04386842      -2.95708662      -1.25696694
C       -2.48955275      -2.48394212      -2.49508124
C       -2.13578468      -1.20362365      -2.92565535
O       -2.48591972      -0.64995045      -4.12825600
C       -3.72756294      -1.09310015      -4.68080001
C       -4.06723066      -0.30401516      -5.92848685
C       -3.67179403       1.02864746      -6.09726759
C       -4.04782285       1.74414030      -7.23793618
C       -4.82143421       1.13815619      -8.23340820
C       -5.21439592      -0.19625823      -8.09019397
C       -4.84310462      -0.90336413      -6.93425829
C       -5.91836335      -0.95585833      -9.16773435
O       -5.67226735      -2.15153496      -9.25695729
N       -6.78550977      -0.23496928      -9.97465311
C       -7.43097564      -0.70257150     -11.14620845
C       -7.34096562      -2.01100469     -11.61848304
C       -7.90657793      -2.37035109     -12.84878150
C       -8.59308617      -1.43499898     -13.63934570
C       -8.73805190      -0.13867063     -13.13151254
C       -8.16561014       0.22125576     -11.89931290
C       -9.06869812      -1.88840728     -15.00333011
N       -9.90482324      -0.94284914     -15.73771364
N      -11.25171933      -1.07666305     -15.71844916
C      -11.67544791      -0.16708725     -16.60261134
C      -10.61034823       0.53675836     -17.17491893
Br     -10.75937926       1.87645243     -18.46378171
C       -9.47356579       0.02339133     -16.60997636
C       -1.31796836      -0.40861542      -2.11942367
H       -0.89921615      -2.53142788       0.51429211
H       -2.31487003      -3.95821206      -0.92995220
H       -3.08801492      -3.14840933      -3.10877443
H       -4.53639162      -0.94617538      -3.95350860
H       -3.65260526      -2.15200226      -4.95204427
H       -3.05050577       1.51327212      -5.34490673
H       -3.71344446       2.77258803      -7.35819307
H       -5.05785102       1.70736191      -9.12679770
H       -5.14635806      -1.94510937      -6.83262777
H       -6.95494532       0.73047091      -9.73155999
H       -6.82331756      -2.78604054     -11.06194075
H       -7.78652521      -3.39733677     -13.19140955
H       -9.28434837       0.62230685     -13.68468867
H       -8.28320821       1.24675561     -11.55770402
H       -9.64474436      -2.81715443     -14.91330602
H       -8.19729852      -2.08887780     -15.63943877
H      -12.73707686      -0.07064676     -16.78905880
H       -8.42482381       0.24141557     -16.75240284
H       -1.03166421       0.58098603      -2.46356896
C       -0.88193628       0.88193628       0.88193628
C       -1.03375735       2.23219937       0.57642222
C       -1.83649793       3.03366564       1.38775840
C       -2.49091710       2.48339187       2.49426714
C       -2.34571892       1.12699105       2.79235371
O       -2.91067486       0.48905970       3.86439161
C       -4.15442581       1.02354525       4.32349205
C       -4.74199977       0.14723317       5.41049973
C       -4.52771470      -1.23604764       5.44874709
C       -5.12871194      -2.02285246       6.43575925
C       -5.95046236      -1.43982386       7.40604772
C       -6.16543576      -0.05807865       7.39349101
C       -5.56808137       0.72283799       6.38980768
C       -6.91162258       0.65773650       8.47259694
O       -6.54343945       1.79297166       8.74434850
N       -7.95346653      -0.03210961       9.07377525
C       -8.68783816       0.37772330      10.21419413
C       -8.51025710       1.60028479      10.85991146
C       -9.18607579       1.88636242      12.05327231
C      -10.07254817       0.96368359      12.63119909
C      -10.29823153      -0.23571814      11.94572168
C       -9.61550638      -0.52303716      10.75119806
C      -10.66631854       1.31531607      13.97880089
N      -11.69399751       0.40851389      14.48287462
N      -13.00254802       0.71778481      14.32649870
C      -13.63944934      -0.22446395      15.03016111
C      -12.74590580      -1.12200662      15.62460962
Br     -13.21438611      -2.57010575      16.70242818
C      -11.49386365      -0.69943269      15.26571986
C       -1.52678849       0.33030481       1.98891415
H       -0.52765970       2.66911104      -0.28041881
H       -1.94575477       4.09243986       1.16483966
H       -3.08377443       3.14510584       3.11631841
H       -4.87321324       1.06770483       3.49515753
H       -3.99418995       2.02543172       4.73703012
H       -3.87366096      -1.70768203       4.71616144
H       -4.93327552      -3.09301579       6.45878978
H       -6.36497420      -2.07230831       8.18462091
H       -5.73376101       1.79990550       6.39042868
H       -8.19966576      -0.93289488       8.68926352
H       -7.83896140       2.36015716      10.47218028
H       -8.99438778       2.84274377      12.53813998
H      -10.99568653      -0.97763066      12.32867431
H       -9.80473886      -1.47839182      10.26780958
H      -11.11514646       2.31526694      13.94479141
H       -9.86788995       1.32622733      14.73149781
H      -14.72030172      -0.20271809      15.07919877
H      -10.50464555      -1.06699205      15.49815758
H       -1.40336617      -0.72108086       2.23196183
C        0.88193628      -0.88193628       0.88193628
C        1.34621262      -0.39487765       2.10128867
C        2.15484875      -1.20278837       2.90028487
C        2.48932251      -2.49519364       2.48405996
C        2.01381202      -2.98520018       1.26605148
O        2.30205546      -4.21801518       0.74405553
C        2.55043138      -5.25545420       1.69557753
C        2.71088205      -6.59063153       0.99821909
C        2.04316454      -6.89233483      -0.19508522
C        2.17206942      -8.15364483      -0.78409552
C        2.97569339      -9.13446524      -0.19347241
C        3.66206890      -8.84801174       0.99076748
C        3.51592799      -7.58216174       1.58263731
C        4.64711108      -9.78833655       1.60650840
O        5.60295404      -9.29079478       2.18701078
N        4.39154987     -11.14334072       1.46024158
C        5.25803249     -12.20699970       1.81472339
C        6.48810439     -12.03483435       2.44751460
C        7.34555171     -13.12266428       2.65749453
C        6.99318749     -14.42038709       2.25385628
C        5.72992867     -14.60002349       1.67828290
C        4.87312315     -13.50664506       1.46389907
C        8.03179195     -15.50952881       2.41911475
N        7.58606732     -16.86968803       2.12963066
N        7.21620010     -17.68851612       3.14211531
C        7.02986339     -18.87050106       2.54478205
C        7.27685111     -18.80227149       1.16938620
Br       7.15191778     -20.22487868      -0.03008792
C        7.63810752     -17.50601364       0.91602965
C        1.21909674      -2.16769099       0.45921971
H        1.09297570       0.60888199       2.43225822
H        2.53483005      -0.82257172       3.84563251
H        3.14273190      -3.08206260       3.12040418
H        1.70746384      -5.33453960       2.39407215
H        3.47440710      -5.03903736       2.24320732
H        1.42982102      -6.13609550      -0.68377614
H        1.66000056      -8.36064697      -1.72159803
H        3.08998602     -10.08747353      -0.70017276
H        4.05955878      -7.36318337       2.50135304
H        3.51819420     -11.40931927       1.02852093
H        6.82713909     -11.06007515       2.78408461
H        8.30922713     -12.93623599       3.12980840
H        5.38875294     -15.58644738       1.37152987
H        3.91194238     -13.69167636       0.99053789
H        8.41501457     -15.51363770       3.44655255
H        8.87279441     -15.30967398       1.74314669
H        6.73178729     -19.72073175       3.14426337
H        7.93135992     -16.99330292       0.01114824
H        0.86322363      -2.54579858      -0.49477507
