177
Properties=species:S:1:pos:R:3 pbc="F F F"
C        0.00000000       0.00000000       0.00000000
C        0.88222442       0.88222442      -0.88222442
C        1.62868672       0.31096322      -1.90871190
C        2.44059989       1.12176076      -2.70915003
C        2.50010258       2.50399216      -2.49542306
C        1.74258843       3.06134855      -1.46148603
C        0.93729347       2.25291047      -0.65286147
N        3.33900965       3.25528119      -3.33617240
C        3.45990683       4.62871559      -3.40658627
O        2.81079672       5.45536675      -2.77116082
C        4.46515265       5.05147246      -4.39689741
C        4.74490972       6.38566899      -4.79160957
C        5.69214943       6.27873119      -5.77242453
N        6.30326195       7.20167934      -6.54956743
C        6.93902281       6.79237147      -7.80010365
H        7.67193214       7.57501450      -8.04137017
C        7.72520027       5.49138241      -7.54613612
C        6.91040578       4.38365039      -6.84155602
H        7.61163764       3.79106761      -6.23841744
N        5.95295751       4.94227758      -5.90498434
N        5.24006125       4.16604787      -5.06546524
C        6.22794021       3.44362103      -7.81311720
F        5.77784364       2.32118459      -7.20698205
F        5.18976874       4.00036708      -8.46626637
F        7.11440382       3.02942803      -8.75603877
C        5.97311513       6.75943593      -8.97814029
C        4.58961359       6.98222677      -8.84111776
C        3.73805723       6.96676515      -9.94844002
C        4.25809673       6.73785458     -11.21638314
Br       3.10893273       6.72717827     -12.71503310
C        5.62304251       6.52491130     -11.38476222
C        6.47421155       6.53864621     -10.27385744
H        1.58762937      -0.75846642      -2.09586628
H        3.01524802       0.65866192      -3.50793082
H        1.76669920       4.12598971      -1.24530301
H        0.36341164       2.70829938       0.14943250
H        3.92146515       2.75990342      -4.00703937
H        4.27345358       7.28600436      -4.42092488
H        5.96605923       8.16391101      -6.54479616
H        8.55690019       5.74890873      -6.87317231
H        8.19874111       5.11595227      -8.46074827
H        4.14201596       7.16398151      -7.86727673
H        2.67296522       7.13324192      -9.80515607
H        6.03549036       6.35107001     -12.37577217
H        7.53885799       6.38337026     -10.43738261
C       -0.88222442      -0.88222442      -0.88222442
C       -1.06912170      -2.22250379      -0.55673635
C       -1.87184684      -3.02809437      -1.37156947
C       -2.49888751      -2.49610444      -2.50452584
C       -2.30195606      -1.14780483      -2.81566212
C       -1.49235206      -0.34159669      -2.00911666
N       -3.28810513      -3.36471854      -3.27763957
C       -4.10136772      -3.04686896      -4.34697201
O       -4.32245230      -1.92345725      -4.79141474
C       -4.75605103      -4.23376793      -4.92370357
C       -5.73582304      -4.23592693      -5.95043830
C       -6.09371293      -5.54723646      -6.10235577
N       -7.01008357      -6.15319723      -6.89122790
C       -7.49423879      -7.48875061      -6.54850853
H       -7.89032910      -7.91889791      -7.47908980
C       -6.29019259      -8.35085722      -6.12166900
C       -5.38669008      -7.69602264      -5.05289947
H       -4.36343678      -8.05993783      -5.21774808
N       -5.32828102      -6.25528933      -5.21664909
N       -4.48426423      -5.48929977      -4.49801037
C       -5.78478851      -8.06162703      -3.63826289
F       -4.82678112      -7.74031722      -2.73891194
F       -6.93447884      -7.48787090      -3.23405245
F       -5.95529010      -9.40604453      -3.53853599
C       -8.66720843      -7.46735137      -5.57613155
C       -9.14721764      -6.28531254      -4.98042793
C      -10.24038624      -6.30207536      -4.11080081
C      -10.88043852      -7.50271791      -3.82917801
Br     -12.36481685      -7.52453462      -2.66179263
C      -10.43556257      -8.68600565      -4.41114781
C       -9.33884877      -8.66743120      -5.28043523
H       -0.59857001      -2.65050925       0.32405003
H       -2.00850247      -4.07249183      -1.10084647
H       -2.75365687      -0.69183862      -3.69249643
H       -1.34833904       0.70175836      -2.27569784
H       -3.30822553      -4.35093081      -3.02925160
H       -6.13876834      -3.37489694      -6.46671754
H       -7.67747978      -5.58506874      -7.41221788
H       -5.66775829      -8.49334024      -7.01788269
H       -6.59716275      -9.35887858      -5.81940033
H       -8.67483463      -5.32537062      -5.17306896
H      -10.57886347      -5.37170031      -3.66079945
H      -10.93681848      -9.62721397      -4.19830009
H       -9.02210480      -9.60561007      -5.73189599
C       -0.88222442       0.88222442       0.88222442
C       -0.56040566       1.06384137       2.22411482
C       -1.37524776       1.86659590       3.02966702
C       -2.50451694       2.49891424       2.49608661
C       -2.81199036       2.30724302       1.14618963
C       -2.00545566       1.49763798       0.33997177
N       -3.27788306       3.28782926       3.36475092
C       -4.34361953       4.10548737       3.04610179
O       -4.78378872       4.33153930       1.92199627
C       -4.92204265       4.75823761       4.23324226
C       -5.94567116       5.74125474       4.23526238
C       -6.10061960       6.09547098       5.54721459
N       -6.88850688       7.01241958       6.15358225
C       -6.54850061       7.49125170       7.49174561
H       -7.47918470       7.88893217       7.92019994
C       -6.12821716       6.28313147       8.35137017
C       -5.06023929       5.37831644       7.69705646
H       -5.22948280       4.35444470       8.05719519
N       -5.21959520       5.32499071       6.25563352
N       -4.50120310       4.48112514       5.48924613
C       -3.64551772       5.77075895       8.06840177
F       -2.74818888       4.81092160       7.74689980
F       -3.23584774       6.92097056       7.49958389
F       -3.54952292       5.93668449       9.41366322
C       -5.57235086       8.66118819       7.47715230
C       -4.97137794       9.14304340       6.29853677
C       -4.09835096      10.23338521       6.32152623
C       -3.81851836      10.86873417       7.52508192
Br      -2.64651329      12.34931984       7.55531098
C       -4.40565030      10.42196429       8.70510145
C       -5.27834306       9.32808196       8.68029019
H        0.31752200       0.58914085       2.65341038
H       -1.10741263       1.99908269       4.07534544
H       -3.68593685       2.76316884       0.68888623
H       -2.26917561       1.35777741      -0.70467450
H       -3.03256695       3.30403722       4.35180378
H       -6.45793377       6.14856285       3.37388620
H       -7.40557322       7.68326335       5.58592983
H       -7.02684563       5.66309938       8.48903622
H       -5.82818177       6.58594606       9.36131382
H       -5.16246336       8.67431708       5.33649375
H       -3.64432655      10.57337576       5.39366091
H       -4.19420743      10.91955833       9.64856677
H       -5.73378282       9.00980437       9.61602367
C        0.88222442      -0.88222442       0.88222442
C        2.09512067      -1.35934294       0.39389823
C        2.89602279      -2.17274997       1.20273793
C        2.49497354      -2.50146407       2.50308018
C        1.27495301      -2.01227008       2.97819992
C        0.46687759      -1.20692037       2.16926745
N        3.34855614      -3.32492848       3.25697862
C        3.23614440      -3.67013513       4.58892916
O        2.38339801      -3.27455381       5.37937246
C        4.31248219      -4.57671368       5.02432665
C        4.54916795      -5.02215550       6.35086482
C        5.68408811      -5.78191921       6.27729784
N        6.41104545      -6.42261930       7.22084395
C        7.79915473      -6.78703465       6.94530855
H        8.04596141      -7.60083605       7.64151935
C        7.87922802      -7.36472123       5.51876955
C        7.21483387      -6.48299862       4.43777970
H        6.83600630      -7.15196111       3.65315528
N        6.05482635      -5.78500255       4.96039053
N        5.22792841      -5.07975537       4.16389058
C        8.18102405      -5.51276227       3.79089212
F        7.67781380      -4.96918476       2.65901172
F        8.55547957      -4.50211013       4.59881249
F        9.31368947      -6.16570574       3.42047541
C        8.78398357      -5.66748105       7.25922673
C        8.37822356      -4.37886814       7.65586641
C        9.31141848      -3.38409868       7.95774524
C       10.66991986      -3.66449591       7.87791868
Br      11.93197605      -2.32319494       8.29597311
C       11.10155587      -4.93213334       7.49902682
C       10.16505888      -5.92675331       7.19490302
H        2.42749848      -1.10666294      -0.60913220
H        3.84151189      -2.53475184       0.80557704
H        0.91207494      -2.25188505       3.97403193
H       -0.48076666      -0.84484623       2.55819895
H        4.17557268      -3.70774987       2.80508540
H        3.97417123      -4.77342160       7.23279000
H        6.20654418      -6.26155142       8.20667081
H        7.33001097      -8.31821046       5.53075980
H        8.90712411      -7.62641014       5.24190740
H        7.32561291      -4.11761542       7.73004588
H        8.96297524      -2.39674112       8.25164686
H       12.16363674      -5.15800126       7.44069453
H       10.53149035      -6.91264064       6.91547987
