165
Properties=species:S:1:pos:R:3 pbc="F F F"
C        0.00000000       0.00000000       0.00000000
C        0.88209790       0.88209790      -0.88209790
C        0.32801679       1.99287482      -1.51988621
C        1.12921849       2.79466572      -2.33559164
C        2.47696948       2.46490833      -2.52049650
C        3.03789896       1.36497547      -1.86267366
C        2.23303206       0.56895995      -1.04319384
S        3.49505019       3.48032605      -3.57327741
O        2.84264090       4.76256873      -3.73235189
O        4.85063719       3.39446070      -3.07114438
N        3.46331172       2.62322637      -5.02592277
C        2.37730002       2.87710989      -5.91879628
C        1.22874043       2.09219888      -5.81977862
C        0.15502319       2.32046709      -6.68133920
C        0.22912747       3.33069553      -7.64095498
C        1.36743082       4.13430287      -7.72847018
C        2.43357407       3.92915599      -6.85053183
N        3.61440001       4.74008232      -6.98974131
S        4.83586293       4.03276571      -7.92773181
O        5.33587232       2.87122816      -7.21986589
O        4.34998313       3.96110699      -9.29110366
C        6.08924833       5.28684053      -7.85456179
C        6.45749520       5.98390656      -9.01005732
C        7.44570441       6.96765602      -8.93110584
C        8.05570861       7.24120408      -7.70525109
Br       9.38969896       8.57686923      -7.60244325
C        7.69176553       6.53822558      -6.55442763
C        6.70575056       5.55373547      -6.62712817
H       -0.72227010       2.24128370      -1.38784643
H        0.69662285       3.66228202      -2.82960651
H        4.09106629       1.12121985      -1.98560914
H        2.66594531      -0.29035136      -0.53640246
H        4.38999607       2.59802289      -5.46983943
H        1.17167311       1.28612587      -5.09341625
H       -0.73419229       1.69761155      -6.61593408
H       -0.59799724       3.48636182      -8.33017275
H        1.41751543       4.90189865      -8.49557279
H        3.40792609       5.68428256      -7.31721779
H        5.99137681       5.76840093      -9.96925928
H        7.73585656       7.51159776      -9.82701307
H        8.17063664       6.74772509      -5.60182743
H        6.42592579       5.00220941      -5.73078882
C       -0.88209790      -0.88209790      -0.88209790
C       -2.25127189      -0.62488613      -0.96461980
C       -3.06187778      -1.43621526      -1.76138282
C       -2.49534966      -2.51194316      -2.45508150
C       -1.11921430      -2.75554686      -2.39078693
C       -0.31159462      -1.93734806      -1.59624317
S       -3.53303130      -3.55560263      -3.46001971
O       -4.76025141      -2.83997855      -3.73733155
O       -2.71188097      -4.06642940      -4.53793190
N       -3.83342089      -4.85368990      -2.42535007
C       -4.92692640      -4.73230998      -1.51396980
C       -4.68735732      -4.21028730      -0.24307332
C       -5.73916209      -4.08272149       0.66505410
C       -7.02808404      -4.47701345       0.30431951
C       -7.27723095      -4.97830375      -0.97466916
C       -6.23424480      -5.08186338      -1.89715371
N       -6.50654097      -5.64386349      -3.19381919
S       -6.17964892      -7.30239169      -3.31431983
O       -4.74884437      -7.49304341      -3.18507859
O       -7.13416088      -7.99546726      -2.47256564
C       -6.61174433      -7.61141465      -5.00749166
C       -7.70170633      -8.43105506      -5.31869769
C       -8.02565183      -8.66122329      -6.65759115
C       -7.25890759      -8.07604797      -7.66720823
Br      -7.70401556      -8.38688770      -9.47810819
C       -6.16620643      -7.26435712      -7.35385519
C       -5.83713470      -7.03134458      -6.01813492
H       -2.69413082       0.20199939      -0.41472861
H       -4.12868804      -1.23247121      -1.82735214
H       -0.67307321      -3.57619590      -2.94862618
H        0.75732488      -2.12944496      -1.53987634
H       -3.78356186      -5.75204779      -2.92224875
H       -3.68259077      -3.92494333       0.05631887
H       -5.54985776      -3.69160787       1.66211228
H       -7.83978075      -4.40359433       1.02483774
H       -8.28216318      -5.30106141      -1.23176227
H       -7.44979724      -5.43630505      -3.52332414
H       -8.29691771      -8.89635986      -4.53575946
H       -8.87168669      -9.29844666      -6.90433405
H       -5.56658633      -6.81364028      -8.13996255
H       -4.98201378      -6.40272327      -5.77418696
C       -0.88209790       0.88209790       0.88209790
C       -0.84304190       2.26869560       0.72904033
C       -1.63994363       3.07814920       1.54138302
C       -2.45663548       2.49093233       2.51480650
C       -2.51324316       1.09986194       2.65244300
C       -1.71778263       0.29405832       1.83334490
S       -3.46224061       3.52557464       3.56083839
O       -3.59087050       4.82022380       2.92646721
O       -4.63475855       2.75727240       3.92421132
N       -2.51462742       3.64660417       4.95122927
C       -1.51855983       4.67024994       4.98439641
C       -0.23129318       4.36956220       4.53986256
C        0.75896570       5.35246523       4.56332995
C        0.46381327       6.63346908       5.03112217
C       -0.82914769       6.94584530       5.45521087
C       -1.83112490       5.97461416       5.40752282
N       -3.14477709       6.30694342       5.89250313
S       -3.42029119       5.86959253       7.50647673
O       -3.41214888       4.42291065       7.59190683
O       -2.56832764       6.70070498       8.33316116
C       -5.09628555       6.41086549       7.72349960
C       -5.39060148       7.45887076       8.60198684
C       -6.71608887       7.87029743       8.75807997
C       -7.72969078       7.23124466       8.04122834
Br      -9.52190941       7.79466771       8.25243433
C       -7.43407305       6.17976133       7.17058435
C       -6.11189130       5.76369961       7.01102329
H       -0.19816391       2.72609114      -0.01739502
H       -1.61090937       4.15891321       1.41868880
H       -3.16576869       0.64029312       3.39183348
H       -1.75559331      -0.78718374       1.94358685
H       -3.08360294       3.57043796       5.80381750
H        0.01511972       3.36790501       4.19842994
H        1.76730389       5.11386427       4.23279295
H        1.24561112       7.38858885       5.07555961
H       -1.03646834       7.94155779       5.83696074
H       -3.38651251       7.28608399       5.73682993
H       -4.60544189       7.95420979       9.16938535
H       -6.94977162       8.68410223       9.44059355
H       -8.22386559       5.67921850       6.61710507
H       -5.88233814       4.94045156       6.33613432
C        0.88209790      -0.88209790       0.88209790
C        1.89349726      -0.29987605       1.64740451
C        2.70850669      -1.10482083       2.44614833
C        2.51472199      -2.49107522       2.45657711
C        1.48593413      -3.07215083       1.70746314
C        0.66967279      -2.26155091       0.91396214
S        3.56475229      -3.51895717       3.46494419
O        4.19171433      -2.68099204       4.46485514
O        2.78771105      -4.67882388       3.84970734
N        4.71012260      -4.05425816       2.34808009
C        5.84371149      -3.21735265       2.11214204
C        5.77988337      -2.27298212       1.08785245
C        6.87462053      -1.44462291       0.83758603
C        8.03164684      -1.56029595       1.60883520
C        8.09176211      -2.48806463       2.65037713
C        6.98934574      -3.30012806       2.92378809
N        7.09123356      -4.28017556       3.97281453
S        7.53184680      -5.82669779       3.43781586
O        6.45219366      -6.34989440       2.62487832
O        8.89685189      -5.74763811       2.95770378
C        7.53688141      -6.72639245       4.96737679
C        8.73371058      -7.23615726       5.48159124
C        8.71633519      -7.94087792       6.68725316
C        7.50878506      -8.13147953       7.36189919
Br       7.49092837      -9.08219307       8.99589002
C        6.31388351      -7.62823858       6.84229665
C        6.32472247      -6.92407096       5.63782076
H        2.05357362       0.77542396       1.62871038
H        3.49454989      -0.64912614       3.04483535
H        1.31793083      -4.14676894       1.73319552
H       -0.12624804      -2.71241446       0.32582999
H        4.92874024      -5.04998535       2.47913281
H        4.89326374      -2.19310642       0.46484508
H        6.83175234      -0.71964246       0.02795854
H        8.89361048      -0.93317347       1.39175339
H        9.00792139      -2.58021797       3.22684751
H        7.69397840      -3.97701170       4.73843633
H        9.67587500      -7.09785632       4.95530570
H        9.64425400      -8.33976087       7.09045252
H        5.37368309      -7.78154914       7.36495693
H        5.39223061      -6.53636810       5.23032531
