173
Properties=species:S:1:pos:R:3 pbc="F F F"
C        0.00000000       0.00000000       0.00000000
C        0.88209790       0.88209790      -0.88209790
C        0.32801679       1.99287482      -1.51988621
C        1.12921849       2.79466572      -2.33559164
C        2.47696948       2.46490833      -2.52049650
C        3.03789896       1.36497547      -1.86267366
C        2.23303206       0.56895995      -1.04319384
S        3.49505019       3.48032605      -3.57327741
O        2.84264090       4.76256873      -3.73235189
O        4.85063719       3.39446070      -3.07114438
N        3.46331172       2.62322637      -5.02592277
C        2.37730002       2.87710989      -5.91879628
C        1.22874043       2.09219888      -5.81977862
C        0.15502319       2.32046709      -6.68133920
C        0.22912747       3.33069553      -7.64095498
C        1.36743082       4.13430287      -7.72847018
C        2.43357407       3.92915599      -6.85053183
N        3.61440001       4.74008232      -6.98974131
S        4.83586293       4.03276571      -7.92773181
O        5.33587232       2.87122816      -7.21986589
O        4.34998313       3.96110699      -9.29110366
C        6.08924833       5.28684053      -7.85456179
C        6.45749520       5.98390656      -9.01005732
C        7.44570441       6.96765602      -8.93110584
C        8.05570861       7.24120408      -7.70525109
C        7.69176553       6.53822558      -6.55442763
C        6.70575056       5.55373547      -6.62712817
H       -0.72227010       2.24128370      -1.38784643
H        0.69662285       3.66228202      -2.82960651
H        4.09106629       1.12121985      -1.98560914
H        2.66594531      -0.29035136      -0.53640246
H        4.38999607       2.59802289      -5.46983943
H        1.17167311       1.28612587      -5.09341625
H       -0.73419229       1.69761155      -6.61593408
H       -0.59799724       3.48636182      -8.33017275
H        1.41751543       4.90189865      -8.49557279
H        3.40792609       5.68428256      -7.31721779
H        5.99137681       5.76840093      -9.96925928
H        7.73585656       7.51159776      -9.82701307
H        8.17063664       6.74772509      -5.60182743
H        6.42592579       5.00220941      -5.73078882
C        9.07179764       8.25856879      -7.62694324
C        9.92277221       9.11061174      -7.56136042
Br      11.29872610      10.48829312      -7.45531854
C       -0.88209790      -0.88209790      -0.88209790
C       -2.16560812      -0.45271873      -1.22245097
C       -2.97827015      -1.26176865      -2.01943705
C       -2.50369882      -2.50497364      -2.45370186
C       -1.20861468      -2.92501689      -2.13191652
C       -0.39743554      -2.10920286      -1.33854746
S       -3.54694135      -3.54314200      -3.45857029
O       -4.58963792      -2.71779637      -4.03012722
O       -2.67760617      -4.33311596      -4.30552013
N       -4.19728196      -4.59967501      -2.31550389
C       -5.37292275      -4.17911068      -1.62117275
C       -5.23157604      -3.49516164      -0.41398025
C       -6.36502674      -3.07492587       0.28312313
C       -7.63768756      -3.33848886      -0.22460156
C       -7.78386668      -4.00217282      -1.44416436
C       -6.65309488      -4.40007653      -2.16009047
N       -6.82932767      -5.12269601      -3.39219996
S       -6.76426744      -6.80782525      -3.22426776
O       -5.41623354      -7.17319671      -2.83753612
O       -7.92752507      -7.21347281      -2.46119589
C       -6.99970382      -7.32582154      -4.90512528
C       -8.15451176      -8.02452759      -5.27241973
C       -8.32104285      -8.42275956      -6.60066386
C       -7.33528728      -8.12363042      -7.54324608
C       -6.17940406      -7.43272029      -7.17229439
C       -6.00695778      -7.03294688      -5.84670954
H       -2.53994180       0.50665884      -0.87357707
H       -3.97755550      -0.92422930      -2.28672658
H       -0.82894384      -3.88006247      -2.48888898
H        0.60715737      -2.43723248      -1.08192131
H       -4.22584018      -5.56517174      -2.66684647
H       -4.24563053      -3.30823837       0.00265366
H       -6.25582450      -2.55653387       1.23300503
H       -8.51923962      -3.03540532       0.33610761
H       -8.78201000      -4.21869740      -1.81427947
H       -7.67043623      -4.84179676      -3.89719344
H       -8.92142916      -8.26765319      -4.53995467
H       -9.21685158      -8.96693624      -6.89067957
H       -5.41012158      -7.20497600      -7.90509158
H       -5.10329035      -6.49889950      -5.55673416
C       -7.51196884      -8.53280220      -8.91253863
C       -7.65993965      -8.87548358     -10.05932114
Br      -7.89919593      -9.42957037     -11.91357146
C       -0.88209790       0.88209790       0.88209790
C       -0.46831412       2.17772210       1.19474160
C       -1.26717957       2.98247317       2.00982312
C       -2.46711535       2.47429177       2.52096719
C       -2.89312364       1.18384107       2.18858338
C       -2.09255214       0.38450181       1.36813190
S       -3.47876939       3.49693884       3.57294542
O       -3.08656626       4.87608612       3.37490913
O       -4.85279845       3.08127826       3.38216555
N       -3.02586666       2.97479992       5.11179427
C       -1.88000732       3.58705566       5.70614320
C       -0.62837706       3.00475302       5.50758785
C        0.50559232       3.58379916       6.07862264
C        0.38908634       4.74223100       6.84763331
C       -0.85845046       5.34192760       7.02982580
C       -1.99264735       4.78308388       6.43753066
N       -3.27391616       5.39325692       6.67705056
S       -4.14691909       4.69736394       7.95207742
O       -4.51002368       3.34756922       7.56937347
O       -3.43286967       4.99087816       9.17844595
C       -5.62520456       5.67872105       7.92672503
C       -5.92766142       6.52573579       8.99806187
C       -7.09576295       7.29027598       8.95842734
C       -7.94765337       7.19859416       7.85591625
C       -7.64733781       6.34611181       6.79096912
C       -6.48225806       5.57920100       6.82515513
H        0.47058558       2.56796231       0.80948331
H       -0.94486577       3.99358522       2.25006038
H       -3.83729879       0.79572643       2.56487006
H       -2.41904401      -0.62128557       1.11423797
H       -3.83867196       2.88475252       5.73443392
H       -0.53073940       2.08816162       4.93231421
H        1.47963186       3.12066506       5.93832014
H        1.27109803       5.17409091       7.31554445
H       -0.93454555       6.23098996       7.64945136
H       -3.21351284       6.40563938       6.79027422
H       -5.27156804       6.59416976       9.86329922
H       -7.33545214       7.94956894       9.78944632
H       -8.31336991       6.27108515       5.93573410
H       -6.25103723       4.91075918       5.99712760
C       -9.14942836       7.99094355       7.81693777
C      -10.15591491       8.65453617       7.78429329
Br     -11.78331854       9.72750930       7.73150992
C        0.88209790      -0.88209790       0.88209790
C        2.12175387      -0.40683218       1.31219177
C        2.93501989      -1.21505143       2.10940454
C        2.50631128      -2.50228926       2.45377378
C        1.25366763      -2.96982917       2.04205130
C        0.44133369      -2.15498281       1.24886935
S        3.55123438      -3.53841386       3.45900540
O        4.51773867      -2.69291620       4.12690664
O        2.68353984      -4.41587682       4.21682561
N        4.31461289      -4.49767132       2.30017665
C        5.49981710      -3.98120449       1.69218459
C        5.38361106      -3.24158834       0.51551853
C        6.52689930      -2.72744736      -0.09751719
C        7.78437509      -2.95275462       0.46364828
C        7.90368421      -3.67257855       1.65394109
C        6.76091229      -4.16532154       2.28702806
N        6.91271460      -4.94306324       3.48844581
S        6.94673584      -6.61788789       3.23173672
O        5.64166055      -7.03011744       2.75518838
O        8.16739092      -6.92231662       2.51248623
C        7.12377314      -7.21261597       4.89426153
C        8.29419707      -7.87034268       5.28691933
C        8.41403844      -8.33023289       6.60019494
C        7.36697702      -8.13262447       7.50256229
C        6.19608488      -7.48253097       7.10580289
C        6.07012653      -7.02154712       5.79494055
H        2.46137307       0.58767546       1.03316242
H        3.89987100      -0.84191929       2.44672109
H        0.90808148      -3.96072250       2.32909130
H       -0.52986299      -2.51947309       0.92238631
H        4.37698578      -5.47791261       2.60296001
H        4.41154049      -3.08300598       0.05666876
H        6.43853388      -2.16509685      -1.02427738
H        8.67579527      -2.57557679      -0.03283473
H        8.89187358      -3.85756615       2.06554713
H        7.71076322      -4.64721098       4.05145223
H        9.10932428      -8.03450304       4.58520970
H        9.32181808      -8.84288843       6.90976088
H        5.37940692      -7.33384799       7.80693425
H        5.15505078      -6.51939522       5.48447801
C        7.49543895      -8.60510912       8.85676161
C        7.60302582      -9.00081501       9.99090354
Br       7.77698469      -9.64063796      11.82471511
