138
Properties=species:S:1:pos:R:3 pbc="F F F"
C        1.79136630       1.79136630      -1.79136630
C        1.44486695       3.11880527      -2.01074046
C        2.25820465       3.92176954      -2.81605740
C        3.40301015       3.40334973      -3.44241074
C        3.75481627       2.07638071      -3.16967819
C        2.94862628       1.26715765      -2.35963020
N        4.21193287       4.27417703      -4.19351901
C        4.90920238       3.70407565      -5.35161511
C        5.62457816       4.81856307      -6.07615747
C        5.42087538       5.01009190      -7.45151424
C        6.10907067       6.01865956      -8.13035774
C        7.01744511       6.83566019      -7.46010243
C        7.22993762       6.65302754      -6.09435932
C        6.52753637       5.66139475      -5.41359544
O        6.73603005       5.56577207      -4.06511626
H        0.55362522       3.54416316      -1.55712762
H        1.97986869       4.96309889      -2.95836216
H        4.66907508       1.64464999      -3.56599535
H        3.24159930       0.23817650      -2.17126661
H        3.66676732       5.08868013      -4.48360798
H        4.19160631       3.20948394      -6.01639237
H        5.66147510       2.96786635      -5.04464203
H        4.72370025       4.37534749      -7.99401884
H        7.55732217       7.61842700      -7.98656707
H        7.92850901       7.28909078      -5.55807072
H        5.97580251       5.07370871      -3.68505672
C        5.87589245       6.21523017      -9.53769136
C        5.68060569       6.37985805     -10.71633326
Br       5.36484351       6.64604741     -12.62209754
C       -1.79136630      -1.79136630      -1.79136630
C       -3.06227896      -1.36073792      -2.15139580
C       -3.86320540      -2.17104267      -2.96178352
C       -3.42412226      -3.43392625      -3.39072211
C       -2.12367134      -3.82519969      -3.05200414
C       -1.31305209      -3.01693173      -2.24543032
N       -4.25120139      -4.17773785      -4.25068967
C       -4.19435683      -5.63889592      -4.13164040
C       -5.22883785      -6.23519685      -5.05526400
C       -6.17173090      -7.14976181      -4.56098880
C       -7.10723602      -7.72921690      -5.42163506
C       -7.10849597      -7.42351107      -6.78120068
C       -6.17491235      -6.51835093      -7.28406121
C       -5.25622083      -5.92450937      -6.42179636
O       -4.40154660      -5.00329414      -6.96207764
H       -3.43923775      -0.39746300      -1.81821524
H       -4.84649631      -1.80632717      -3.24850626
H       -1.70409923      -4.75755435      -3.41806684
H       -0.31048509      -3.34921736      -1.99133996
H       -5.21851067      -3.85999624      -4.16054853
H       -4.38369087      -5.93919778      -3.09459397
H       -3.21422692      -6.02813759      -4.43161897
H       -6.17956065      -7.40894036      -3.50456556
H       -7.83252570      -7.87596878      -7.45382175
H       -6.17096776      -6.26438814      -8.34031460
H       -4.05359469      -4.45755004      -6.22342321
C       -8.08034317      -8.65177079      -4.89670002
C       -8.89532041      -9.42440967      -4.45706692
Br     -10.21306967     -10.67370139      -3.74621739
C       -1.79136630       1.79136630       1.79136630
C       -2.57510533       2.78363930       1.21566806
C       -3.38287369       3.58514772       2.02801018
C       -3.39075258       3.43402857       3.42398947
C       -2.62718132       2.39855968       3.97513417
C       -1.81984376       1.58772694       3.16784343
N       -4.26650072       4.23083453       4.18229366
C       -3.82539684       4.61046877       5.52902754
C       -4.85022173       5.54662388       6.12245309
C       -4.45394655       6.79029252       6.63824245
C       -5.39585207       7.64263247       7.21960344
C       -6.73447504       7.26659703       7.31213566
C       -7.13936137       6.03241993       6.80554317
C       -6.20371719       5.19215589       6.20665348
O       -6.66907397       4.01932922       5.67851519
H       -2.57519477       2.93955170       0.14016953
H       -4.00366788       4.34231094       1.55535092
H       -2.65263421       2.18707846       5.04000774
H       -1.23118724       0.79647244       3.62338273
H       -4.51999023       5.06707338       3.65199182
H       -2.84295160       5.09413237       5.48039865
H       -3.74939420       3.73709034       6.18749894
H       -3.41160476       7.09675939       6.58470242
H       -7.46871161       7.92597189       7.76763274
H       -8.18150688       5.73108003       6.86308359
H       -5.99788872       3.70016009       5.03651913
C       -4.97758378       8.92339465       7.72783554
C       -4.62728409       9.99603298       8.15347993
Br      -4.06087912      11.73039843       8.84171091
C        1.79136630      -1.79136630       1.79136630
C        2.15654561      -1.35799279       3.05987429
C        2.96099249      -2.17146433       3.86357477
C        3.44214881      -3.40651298       3.40010883
C        3.02361299      -3.84033374       2.13692844
C        2.21332183      -3.03404732       1.32804498
N        4.19923344      -4.20516685       4.27522861
C        5.24033905      -5.04789841       3.67665568
C        6.00057838      -5.73129217       4.78742815
C        7.39963530      -5.63660674       4.84623948
C        8.10725724      -6.29763222       5.85319851
C        7.44052774      -7.07205340       6.80062658
C        6.05108792      -7.17559366       6.75064290
C        5.34424500      -6.49890365       5.75937791
O        3.98006677      -6.59287033       5.79398128
H        1.81766788      -0.39775478       3.43949334
H        3.21843313      -1.82235780       4.86053881
H        3.30315731      -4.81880746       1.75775564
H        1.91006763      -3.39253999       0.34843479
H        4.60496649      -3.62309697       5.01099198
H        5.91484239      -4.43584990       3.06679033
H        4.80784083      -5.82759060       3.03855205
H        7.93853557      -5.04538991       4.10914110
H        7.98885762      -7.59076517       7.58269345
H        5.51836094      -7.76864501       7.48866455
H        3.62121685      -5.84466949       5.26868160
C        9.54092815      -6.17614116       5.91174466
C       10.74162753      -6.07439240       5.96077706
Br      12.68305689      -5.90987326       6.04005831
C       -0.00445707       0.01189536      -1.78238275
H       -0.66409135       0.67374010      -2.43557963
H        0.65740317      -0.63156657      -2.45157240
C       -0.90989263      -0.90692880      -0.91072765
C        0.90977584       0.90977584      -0.90977584
C       -0.00465871       1.77757030       0.00794375
H       -0.66225468       2.44313916      -0.64384735
H        0.64322798       2.43503045       0.67728295
C       -1.78241447       0.00034974      -0.00472694
H       -2.45427497      -0.65498947       0.64260836
H       -2.43311707       0.67328779      -0.65473579
C       -0.91132561       0.90220522       0.91563759
C       -0.01476271      -0.02253852       1.78660255
H       -0.67934791      -0.69751639       2.42135241
H        0.63392994       0.61504881       2.47327442
C        0.01484550      -1.77751727      -0.01636693
H        0.67870853      -2.42144646      -0.68295456
H       -0.62264859      -2.45592969       0.64226336
C        1.78714474       0.01002794       0.00389507
H        2.44202412       0.67113390       0.66197326
H        2.45385902      -0.65136977      -0.64189061
C        0.91606151      -0.90478549       0.90901405
