134
Properties=species:S:1:pos:R:3 pbc="F F F"
C        1.78740993       1.78740993      -1.78740993
C        2.67796787       1.22508424      -2.68913994
C        3.46623306       2.06920970      -3.47147575
C        3.35904609       3.45208733      -3.32397440
N        2.48092899       4.00340220      -2.46240309
C        1.72006706       3.16683860      -1.71265456
N        4.16595350       4.26744457      -4.14026314
C        4.10438069       5.68901214      -3.78920290
C        5.11489688       6.43461163      -4.63238526
C        6.03206704       7.30261874      -4.01632044
C        6.96029051       8.01027636      -4.78443672
C        6.97995066       7.88003021      -6.17100875
C        6.06856553       7.02971935      -6.79597697
C        5.15428922       6.31118472      -6.02884231
O        4.31997028       5.45909235      -6.69675668
H        2.76552007       0.14826729      -2.79586594
H        4.15889394       1.64505405      -4.19212776
H        1.03618112       3.66495768      -1.03065769
H        5.12580151       3.92902398      -4.06710393
H        4.32985159       5.83453233      -2.72608781
H        3.10983509       6.10181590      -3.99630479
H        6.02503906       7.42365835      -2.93475280
H        7.69902758       8.42947446      -6.77180208
H        6.07734694       6.91555123      -7.87626419
H        3.92507810       4.85540424      -6.03180950
C        7.90696631       8.87879073      -4.13398480
C        8.69980730       9.60617152      -3.58923131
Br       9.98176412      10.78228473      -2.70841100
C       -1.78740993      -1.78740993      -1.78740993
C       -1.48064201      -3.12478480      -1.98676524
C       -2.31233804      -3.89131838      -2.80326210
C       -3.41945640      -3.30199421      -3.41365720
N       -3.73237565      -2.00706647      -3.20729215
C       -2.91411357      -1.27820288      -2.40724377
N       -4.23779950      -4.11412210      -4.22173960
C       -5.26683469      -3.36624611      -4.94951493
C       -5.97884703      -4.31803855      -5.88500819
C       -6.12944419      -3.98088994      -7.24067209
C       -6.79929625      -4.84301419      -8.11269315
C       -7.34200877      -6.03927456      -7.64970630
C       -7.20853240      -6.38120208      -6.30452737
C       -6.52594120      -5.52976921      -5.43860585
O       -6.38811191      -5.94426708      -4.14344033
H       -0.61347260      -3.57888453      -1.51729615
H       -2.09381307      -4.94350372      -2.95875896
H       -3.20951899      -0.23989262      -2.28238488
H       -3.63395802      -4.60990850      -4.87806290
H       -4.81607235      -2.54917727      -5.52522212
H       -6.00610876      -2.94250083      -4.25934620
H       -5.71970461      -3.04584818      -7.61789741
H       -7.86467440      -6.71153178      -8.32409793
H       -7.62282554      -7.31394459      -5.93239223
H       -5.69253825      -5.38872231      -3.73103128
C       -6.92514712      -4.49121794      -9.50337678
C       -7.03054723      -4.19658858     -10.66807432
Br      -7.20097029      -3.72019783     -12.55129173
C       -1.78740993       1.78740993       1.78740993
C       -1.31869338       2.99728408       2.27621459
C       -2.15770795       3.76811513       3.08109543
C       -3.43664862       3.30638210       3.39207710
N       -3.90343502       2.13992452       2.90337474
C       -3.07464379       1.40557539       2.11934104
N       -4.25405810       4.12029005       4.19931306
C       -5.50362583       3.47199752       4.60697238
C       -6.21973606       4.38192097       5.58023674
C       -6.66934087       3.87185205       6.80981330
C       -7.34673196       4.69683141       7.71144022
C       -7.60157333       6.03008844       7.39932785
C       -7.16977971       6.54633446       6.17814768
C       -6.47949451       5.72842158       5.28640017
O       -6.04145371       6.30650068       4.12786493
H       -0.31970605       3.35032588       2.03962136
H       -1.81084238       4.72442520       3.46080817
H       -3.49962416       0.47220130       1.75997103
H       -3.71258061       4.38747759       5.02187122
H       -5.29991305       2.50617730       5.08438139
H       -6.15904597       3.30505628       3.74385353
H       -6.48702311       2.83002216       7.06640493
H       -8.12907384       6.67431166       8.09691861
H       -7.35781606       7.58598504       5.92536127
H       -5.37654242       5.70276616       3.73298326
C       -7.78108783       4.16252114       8.97613288
C       -8.14486087       3.71503628      10.03531298
Br      -8.73305111       2.99149113      11.74791762
C        1.78740993      -1.78740993       1.78740993
C        2.84513435      -1.24551342       2.50154428
C        3.62626283      -2.08948077       3.29117491
C        3.34390879      -3.45469796       3.33650106
N        2.30487600      -3.98277229       2.65908598
C        1.55408277      -3.14607189       1.89940556
N        4.15106260      -4.26885887       4.15373973
C        3.88296806      -5.70129171       3.99833595
C        4.90211550      -6.46993577       4.80984249
C        5.62709906      -7.51356791       4.21033926
C        6.55982710      -8.24278325       4.95239324
C        6.77292454      -7.95885770       6.29920738
C        6.05276963      -6.93238818       6.90910404
C        5.13514773      -6.19414560       6.16502293
O        4.49665125      -5.17096436       6.80820371
H        3.06797546      -0.18390302       2.45777481
H        4.44992595      -1.67881556       3.86733424
H        0.73561346      -3.62631839       1.36986464
H        5.12573671      -4.06766358       3.92852914
H        3.95132505      -5.99499061       2.94415607
H        2.88290930      -5.95600452       4.36904196
H        5.46684223      -7.75526329       3.16134468
H        7.49609171      -8.52432815       6.87988426
H        6.21380470      -6.69783389       7.95752378
H        4.09073731      -4.60119950       6.12035503
C        7.30938158      -9.29464384       4.31571642
C        7.93713345     -10.17557709       3.78249958
Br       8.95215514     -11.59997165       2.92033306
C       -0.00445707       0.01189536      -1.78238275
H       -0.66409135       0.67374010      -2.43557963
H        0.65740317      -0.63156657      -2.45157240
C       -0.90989263      -0.90692880      -0.91072765
C        0.90977584       0.90977584      -0.90977584
C       -0.00465871       1.77757030       0.00794375
H       -0.66225468       2.44313916      -0.64384735
H        0.64322798       2.43503045       0.67728295
C       -1.78241447       0.00034974      -0.00472694
H       -2.45427497      -0.65498947       0.64260836
H       -2.43311707       0.67328779      -0.65473579
C       -0.91132561       0.90220522       0.91563759
C       -0.01476271      -0.02253852       1.78660255
H       -0.67934791      -0.69751639       2.42135241
H        0.63392994       0.61504881       2.47327442
C        0.01484550      -1.77751727      -0.01636693
H        0.67870853      -2.42144646      -0.68295456
H       -0.62264859      -2.45592969       0.64226336
C        1.78714474       0.01002794       0.00389507
H        2.44202412       0.67113390       0.66197326
H        2.45385902      -0.65136977      -0.64189061
C        0.91606151      -0.90478549       0.90901405
