126
Properties=species:S:1:pos:R:3 pbc="F F F"
C        1.78740993       1.78740993      -1.78740993
C        2.67796787       1.22508424      -2.68913994
C        3.46623306       2.06920970      -3.47147575
C        3.35904609       3.45208733      -3.32397440
N        2.48092899       4.00340220      -2.46240309
C        1.72006706       3.16683860      -1.71265456
N        4.16595350       4.26744457      -4.14026314
C        4.10438069       5.68901214      -3.78920290
C        5.11489688       6.43461163      -4.63238526
C        6.03206704       7.30261874      -4.01632044
C        6.96029051       8.01027636      -4.78443672
Br       8.20258991       9.15000644      -3.93086464
C        6.97995066       7.88003021      -6.17100875
C        6.06856553       7.02971935      -6.79597697
C        5.15428922       6.31118472      -6.02884231
O        4.31997028       5.45909235      -6.69675668
H        2.76552007       0.14826729      -2.79586594
H        4.15889394       1.64505405      -4.19212776
H        1.03618112       3.66495768      -1.03065769
H        5.12580151       3.92902398      -4.06710393
H        4.32985159       5.83453233      -2.72608781
H        3.10983509       6.10181590      -3.99630479
H        6.02503906       7.42365835      -2.93475280
H        7.69902758       8.42947446      -6.77180208
H        6.07734694       6.91555123      -7.87626419
H        3.92507810       4.85540424      -6.03180950
C       -1.78740993      -1.78740993      -1.78740993
C       -1.52766735      -3.14273110      -1.92179360
C       -2.35730994      -3.90875080      -2.74085777
C       -3.41491190      -3.30194516      -3.41825075
N       -3.68279365      -1.98847896      -3.27546167
C       -2.86745172      -1.26021320      -2.47189531
N       -4.23340301      -4.11366617      -4.22659201
C       -5.20202488      -3.35637541      -5.02419545
C       -5.91505404      -4.31686405      -5.94997568
C       -5.99880925      -4.02943479      -7.32276219
C       -6.66858032      -4.89946506      -8.18695821
Br      -6.74349356      -4.50622142     -10.03374601
C       -7.27708804      -6.05384033      -7.70006125
C       -7.21021133      -6.34579858      -6.33825194
C       -6.52791753      -5.48718764      -5.47921108
O       -6.45769039      -5.85380224      -4.16432668
H       -0.69864102      -3.61088605      -1.40012622
H       -2.17579868      -4.97410991      -2.84616716
H       -3.12508917      -0.20695102      -2.39975630
H       -3.62504192      -4.65888953      -4.83799798
H       -4.69632330      -2.58157921      -5.61256923
H       -5.94985048      -2.87641843      -4.38168687
H       -5.53702012      -3.12719040      -7.71923969
H       -7.79990788      -6.73202255      -8.36837369
H       -7.67625475      -7.24577640      -5.94713122
H       -5.75675272      -5.30953615      -3.74600296
C       -1.78740993       1.78740993       1.78740993
C       -1.41603372       3.08925673       2.08690160
C       -2.25059181       3.85691462       2.89941207
C       -3.42595522       3.30275976       3.40639282
N       -3.80054718       2.04399663       3.10219046
C       -2.97819489       1.31374462       2.30762071
N       -4.24402482       4.11550936       4.21412703
C       -5.35812692       3.39168222       4.83278659
C       -6.06999985       4.32955429       5.78233962
C       -6.32381885       3.92381577       7.10337160
C       -6.99498360       4.77343671       7.98658328
Br      -7.29968079       4.21714669       9.76663350
C       -7.43715877       6.02604346       7.56778738
C       -7.20076963       6.43699321       6.25649901
C       -6.51666609       5.59687852       5.38077165
O       -6.27480455       6.07694462       4.12407015
H       -0.49638352       3.51533267       1.69793710
H       -1.98106951       4.88264250       3.13236375
H       -3.32540834       0.30482089       2.10156726
H       -3.65413728       4.53371907       4.93407308
H       -4.99241840       2.51601020       5.38204313
H       -6.07664914       3.05562803       4.07567861
H       -5.99356172       2.94473320       7.44515529
H       -7.96050052       6.68889782       8.25090578
H       -7.53601373       7.41377011       5.91937852
H       -5.58861768       5.50435716       3.71931699
C        1.78740993      -1.78740993       1.78740993
C        2.85761777      -1.24909822       2.48547606
C        3.63820558      -2.09297453       3.27573840
C        3.34273007      -3.45476067       3.33761707
N        2.29171938      -3.97907380       2.67594110
C        1.54169285      -3.14247058       1.91539678
N        4.14991556      -4.26882037       4.15492527
C        3.86600758      -5.69995949       4.01662866
C        4.88556137      -6.47069808       4.82563433
C        5.59403616      -7.52749839       4.22947168
C        6.52687302      -8.25863445       4.96949612
Br       7.48822898      -9.65705522       4.13817679
C        6.75633655      -7.96345988       6.31119319
C        6.05262350      -6.92376549       6.91787286
C        5.13496082      -6.18377536       6.17558008
O        4.51320029      -5.14785923       6.81475980
H        3.09057617      -0.19027380       2.42880332
H        4.47167879      -1.68489985       3.83949712
H        0.71318875      -3.61970725       1.39890048
H        5.12422994      -4.07970139       3.91799809
H        3.92081867      -6.00482324       2.96482983
H        2.86724237      -5.94088504       4.39982837
H        5.42082684      -7.77801081       3.18461255
H        7.47964097      -8.53036625       6.89029690
H        6.22653402      -6.68040701       7.96222134
H        4.10608121      -4.58092063       6.12528999
C       -0.00445707       0.01189536      -1.78238275
H       -0.66409135       0.67374010      -2.43557963
H        0.65740317      -0.63156657      -2.45157240
C       -0.90989263      -0.90692880      -0.91072765
C        0.90977584       0.90977584      -0.90977584
C       -0.00465871       1.77757030       0.00794375
H       -0.66225468       2.44313916      -0.64384735
H        0.64322798       2.43503045       0.67728295
C       -1.78241447       0.00034974      -0.00472694
H       -2.45427497      -0.65498947       0.64260836
H       -2.43311707       0.67328779      -0.65473579
C       -0.91132561       0.90220522       0.91563759
C       -0.01476271      -0.02253852       1.78660255
H       -0.67934791      -0.69751639       2.42135241
H        0.63392994       0.61504881       2.47327442
C        0.01484550      -1.77751727      -0.01636693
H        0.67870853      -2.42144646      -0.68295456
H       -0.62264859      -2.45592969       0.64226336
C        1.78714474       0.01002794       0.00389507
H        2.44202412       0.67113390       0.66197326
H        2.45385902      -0.65136977      -0.64189061
C        0.91606151      -0.90478549       0.90901405
