185
Properties=species:S:1:pos:R:3 pbc="F F F"
C        0.00000000       0.00000000       0.00000000
C       11.16192528       8.30547041      -0.15606585
O       10.30099295       7.16999269      -0.25693092
C        9.63941146       6.85480112       0.89374501
O        9.77352457       7.45272246       1.95764741
C        8.75378365       5.73844470       0.67403230
C        7.87649232       5.10631289       1.53321327
C        7.22059083       4.10088095       0.78594606
C        7.75082428       4.14898293      -0.48894276
O        8.68656273       5.13907680      -0.55790173
C        7.53855372       3.37531335      -1.74448020
N        6.55372606       2.31265184      -1.56535161
N        5.26050967       2.64992578      -1.73852904
C        4.56270928       1.52887132      -1.51308768
C        3.09550171       1.57668561      -1.59685268
C        2.48281380       2.49093373      -2.47476488
C        1.09216125       2.59872608      -2.55557730
C        0.28857479       1.78856518      -1.75903821
C        0.88289276       0.88289276      -0.88289276
C        2.27390749       0.77863900      -0.79132830
C        5.45704815       0.45386615      -1.22944778
Cl       5.01674361      -1.16515968      -0.91418254
C        6.74807463       0.97759447      -1.26531468
C        8.05329592       0.31784101      -1.06248637
C        9.06743124       0.89822822      -0.28479911
C       10.30049363       0.26476537      -0.10076236
C       10.52807918      -0.98860458      -0.65771089
C        9.52560744      -1.59333562      -1.40616355
C        8.30710526      -0.94336721      -1.62278450
H       10.56522730       9.21926128      -0.14858118
H       11.80668038       8.31657558      -1.04016327
H       11.79909821       8.24868963       0.72998815
H        7.72088088       5.36243284       2.57445379
H        6.45477439       3.41878716       1.13648418
H        8.46990301       2.92964767      -2.10787927
H        7.16351842       4.03643231      -2.53474633
H        3.09539135       3.14010974      -3.09870041
H        0.64266520       3.31880299      -3.23276387
H       -0.79269034       1.87603248      -1.82091717
H        2.70087103       0.08960599      -0.06860395
H        8.92082256       1.85128106       0.21729189
H       11.07548380       0.74763312       0.49299629
H       11.48165763      -1.48617076      -0.49215762
H        7.55086843      -1.43728921      -2.23043505
C        9.74074198      -2.90918029      -1.95010282
C        9.92091716      -4.01120020      -2.40565195
Br      10.21224519      -5.79307320      -3.14223638
C       -4.23391763     -13.04494401      -2.34459991
O       -4.15183497     -11.69683571      -1.87924588
C       -3.02578241     -11.41026261      -1.16442255
O       -2.14945271     -12.22618987      -0.89295704
C       -3.00719147     -10.01693833      -0.79406624
C       -2.06174787      -9.28454798      -0.10329610
C       -2.52523805      -7.94929686      -0.06099080
C       -3.74766582      -7.93642610      -0.70465805
O       -4.04537220      -9.19238111      -1.14578795
C       -4.77112022      -6.89301856      -0.99420848
N       -4.38839835      -5.59373125      -0.44959990
N       -3.60474030      -4.81892541      -1.22529878
C       -3.38486872      -3.70434442      -0.51545514
C       -2.52592385      -2.65649638      -1.08661977
C       -2.47436965      -2.49047438      -2.48366837
C       -1.64058841      -1.53528240      -3.07059382
C       -0.84421834      -0.72531794      -2.26664190
C       -0.88289276      -0.88289276      -0.88289276
C       -1.70803478      -1.84407894      -0.29176108
C       -4.08807138      -3.77629468       0.72400398
Cl      -4.12717645      -2.56913490       1.93054489
C       -4.73507092      -5.01031046       0.75439761
C       -5.61159483      -5.60503156       1.78300309
C       -5.48745194      -6.94499918       2.18199254
C       -6.32430762      -7.49806613       3.15635238
C       -7.27745524      -6.70517764       3.78544739
C       -7.39591779      -5.36824209       3.42572451
C       -6.58587217      -4.82496970       2.42431932
H       -3.55898902     -13.18299974      -3.19108101
H       -5.25951983     -13.22051278      -2.68338662
H       -4.01103711     -13.75893503      -1.54782756
H       -1.13638764      -9.67534952       0.30287723
H       -2.02879189      -7.09762178       0.38933631
H       -5.75175275      -7.16473100      -0.59094620
H       -4.88688480      -6.77019969      -2.07761257
H       -3.08296404      -3.12182018      -3.12941726
H       -1.61012668      -1.43289675      -4.15120862
H       -0.19404129       0.01480017      -2.72501818
H       -1.68178223      -1.96451863       0.78721989
H       -4.72274237      -7.59282421       1.76075484
H       -6.21680991      -8.54608952       3.43277881
H       -7.91055482      -7.13584386       4.55875417
H       -6.71850699      -3.77896180       2.15345452
C       -8.35276468      -4.53229833       4.10339851
C       -9.15412396      -3.83219544       4.67095048
Br     -10.44985413      -2.70018827       5.58863403
C       -1.40530241      12.69155325       5.52660587
O       -1.50629425      11.55652058       4.66510174
C       -0.31243769      11.08972138       4.19830850
O        0.77702682      11.59789388       4.44773257
C       -0.51461587       9.91180106       3.39177911
C        0.39675997       9.09641249       2.74993941
C       -0.34005699       8.05428959       2.14117914
C       -1.67125307       8.30008698       2.41740992
O       -1.78035510       9.43112354       3.17206263
C       -2.95667909       7.63135649       2.07031170
N       -2.74593052       6.45767692       1.22812206
N       -2.49203973       5.29550982       1.86141494
C       -2.32680018       4.38582456       0.89204353
C       -2.00255080       3.00109599       1.26539321
C       -2.47354977       2.48666747       2.48829516
C       -2.15452620       1.19063139       2.90130703
C       -1.35893944       0.38381415       2.09342460
C       -0.88289276       0.88289276       0.88289276
C       -1.19116203       2.18245947       0.47025330
C       -2.52375581       4.99819540      -0.38158913
Cl      -2.44684516       4.21603504      -1.89711373
C       -2.79415788       6.34537918      -0.14855329
C       -3.09061654       7.43862755      -1.09562080
C       -2.50978617       8.71018137      -0.96950897
C       -2.79910680       9.73868129      -1.87176672
C       -3.64529561       9.50083704      -2.94894716
C       -4.20682834       8.23982816      -3.10822113
C       -3.94861586       7.22265135      -2.18474466
H       -1.04786623      12.37666065       6.50854288
H       -2.40731081      13.11664511       5.63946331
H       -0.75441039      13.46042865       5.10296065
H        1.47125606       9.23577178       2.74434421
H        0.05260138       7.22431116       1.56536759
H       -3.64093564       8.31222482       1.55426949
H       -3.46168620       7.29092803       2.98208283
H       -3.08917945       3.10668156       3.13834048
H       -2.52092754       0.81953808       3.85376643
H       -1.10923080      -0.62270589       2.41773439
H       -0.76941770       2.55017050      -0.46050722
H       -1.79951141       8.93229885      -0.17699853
H       -2.34754819      10.72081492      -1.73824249
H       -3.84879091      10.29900432      -3.66015072
H       -4.42057039       6.25229919      -2.32885531
C       -5.05047171       7.97624779      -4.24505500
C       -5.75702304       7.75549923      -5.19715336
Br      -6.89945678       7.39856748      -6.73661589
C       12.75425018      -1.52020744       5.34900392
O       11.37849402      -1.18002396       5.16939858
C       11.12690852      -0.38059078       4.09296826
O       11.98960491       0.05913577       3.33813048
C        9.71039184      -0.14549204       3.96231217
C        9.00281682       0.56829329       3.01506842
C        7.63239234       0.43315652       3.33628990
C        7.57083244      -0.33474411       4.48317342
O        8.83216351      -0.68263764       4.86874011
C        6.47081755      -0.82975274       5.35777698
N        5.16376908      -0.37457821       4.89338222
N        4.55419791      -1.13343315       3.96133343
C        3.39684742      -0.51429613       3.69352472
C        2.50255966      -1.08888040       2.67759995
C        2.49129504      -2.48203074       2.47518663
C        1.68797407      -3.06600897       1.49248158
C        0.87734523      -2.26343668       0.69539627
C        0.88289276      -0.88289276       0.88289276
C        1.69252780      -0.29326147       1.85808552
C        3.26930915       0.64478390       4.51583683
Cl       1.94286848       1.71920020       4.54209818
C        4.42548491       0.72444334       5.28994220
C        4.82111199       1.70651921       6.31903052
C        6.11692078       2.24289737       6.37643516
C        6.48087098       3.17150081       7.35665120
C        5.53814185       3.61715855       8.27620220
C        4.24171488       3.12053676       8.21725725
C        3.88775874       2.16326092       7.26202473
H       13.04526840      -2.27322748       4.61457388
H       12.86572152      -1.94744171       6.35025600
H       13.39778566      -0.63960424       5.28040980
H        9.43516191       1.10583263       2.17953065
H        6.78925089       0.84993882       2.79776529
H        6.60307954      -0.50857530       6.39577510
H        6.45303678      -1.92607812       5.35558216
H        3.12634663      -3.12521974       3.08263512
H        1.70412431      -4.14211380       1.34799394
H        0.25568032      -2.71905424      -0.07047526
H        1.69985078       0.78896813       1.94819833
H        6.87599172       1.96909442       5.64791444
H        7.49913070       3.55685092       7.38784084
H        5.82177525       4.35665242       9.02252167
H        2.86849696       1.78094332       7.25646063
C        3.25086748       3.60975984       9.14055687
C        2.42103277       4.01948417       9.91382031
Br       1.07926025       4.68197376      11.16412188
