177
Properties=species:S:1:pos:R:3 pbc="F F F"
C        0.00000000       0.00000000       0.00000000
C       11.16192528       8.30547041      -0.15606585
O       10.30099295       7.16999269      -0.25693092
C        9.63941146       6.85480112       0.89374501
O        9.77352457       7.45272246       1.95764741
C        8.75378365       5.73844470       0.67403230
C        7.87649232       5.10631289       1.53321327
C        7.22059083       4.10088095       0.78594606
C        7.75082428       4.14898293      -0.48894276
O        8.68656273       5.13907680      -0.55790173
C        7.53855372       3.37531335      -1.74448020
N        6.55372606       2.31265184      -1.56535161
N        5.26050967       2.64992578      -1.73852904
C        4.56270928       1.52887132      -1.51308768
C        3.09550171       1.57668561      -1.59685268
C        2.48281380       2.49093373      -2.47476488
C        1.09216125       2.59872608      -2.55557730
C        0.28857479       1.78856518      -1.75903821
C        0.88289276       0.88289276      -0.88289276
C        2.27390749       0.77863900      -0.79132830
C        5.45704815       0.45386615      -1.22944778
Cl       5.01674361      -1.16515968      -0.91418254
C        6.74807463       0.97759447      -1.26531468
C        8.05329592       0.31784101      -1.06248637
C        9.06743124       0.89822822      -0.28479911
C       10.30049363       0.26476537      -0.10076236
C       10.52807918      -0.98860458      -0.65771089
C        9.52560744      -1.59333562      -1.40616355
Br       9.80783359      -3.31953805      -2.11973507
C        8.30710526      -0.94336721      -1.62278450
H       10.56522730       9.21926128      -0.14858118
H       11.80668038       8.31657558      -1.04016327
H       11.79909821       8.24868963       0.72998815
H        7.72088088       5.36243284       2.57445379
H        6.45477439       3.41878716       1.13648418
H        8.46990301       2.92964767      -2.10787927
H        7.16351842       4.03643231      -2.53474633
H        3.09539135       3.14010974      -3.09870041
H        0.64266520       3.31880299      -3.23276387
H       -0.79269034       1.87603248      -1.82091717
H        2.70087103       0.08960599      -0.06860395
H        8.92082256       1.85128106       0.21729189
H       11.07548380       0.74763312       0.49299629
H       11.48165763      -1.48617076      -0.49215762
H        7.55086843      -1.43728921      -2.23043505
C      -12.51167690      -5.98106984      -1.13071480
O      -11.41640482      -5.07061554      -1.24089619
C      -10.91990256      -4.63235749      -0.04820752
O      -11.37296125      -4.94490037       1.04926200
C       -9.78378791      -3.77106623      -0.26334191
C       -8.95766657      -3.13271507       0.64078970
C       -7.97121115      -2.45343987      -0.11087469
C       -8.26015642      -2.68702258      -1.44157096
O       -9.36421553      -3.48238814      -1.53693760
C       -7.65863678      -2.26271205      -2.73699844
N       -6.51128614      -1.38219741      -2.53824595
N       -5.31575796      -1.97695923      -2.35624729
C       -4.43882844      -0.97846604      -2.18737379
C       -3.02842395      -1.30737112      -1.93324493
C       -2.48606769      -2.48880738      -2.47363733
C       -1.16287010      -2.86072926      -2.22286527
C       -0.35655346      -2.05240776      -1.42721696
C       -0.88289276      -0.88289276      -0.88289276
C       -2.20916134      -0.51190902      -1.12280444
C       -5.10824905       0.27583373      -2.30794676
Cl      -4.38368333       1.81785986      -2.19994300
C       -6.45517009      -0.00125240      -2.53456129
C       -7.59594413       0.91126639      -2.74894555
C       -8.83677735       0.71061354      -2.12429477
C       -9.91085665       1.58075960      -2.33592432
C       -9.75024078       2.69913768      -3.14608239
C       -8.52044873       2.93171123      -3.74969787
Br      -8.27897042       4.47824482      -4.80730500
C       -7.45811245       2.04113887      -3.56954896
H      -12.14414891      -6.96259390      -0.82632695
H      -12.97259223      -6.07178619      -2.11904081
H      -13.26935332      -5.61506212      -0.43338426
H       -9.05312473      -3.17499346       1.71925827
H       -7.14912335      -1.86005641       0.27210240
H       -8.38661929      -1.74845907      -3.37235159
H       -7.30360159      -3.13929094      -3.29180453
H       -3.10472401      -3.13897655      -3.09050094
H       -0.76995986      -3.78211824      -2.64215395
H        0.67127994      -2.34487731      -1.23066194
H       -2.59558214       0.38578203      -0.64928087
H       -8.99841685      -0.11757493      -1.43881996
H      -10.86772475       1.38960367      -1.85199954
H      -10.58335268       3.38457784      -3.28886966
H       -6.51425562       2.24318338      -4.07294203
C       -0.27676399       7.88871716      11.45798039
O       -0.17595083       7.44960526      10.10236048
C        0.79676909       6.51995728       9.87727938
O        1.56503592       6.09709173      10.73654382
C        0.77791621       6.09714080       8.49897145
C        1.54961603       5.16294925       7.83625872
C        1.07797971       5.10923093       6.50427450
C        0.05753119       6.03587850       6.41040266
O       -0.12278287       6.64147935       7.61927905
C       -0.83829457       6.50424134       5.31581136
N       -0.54570017       5.83336088       4.05266846
N       -1.15855416       4.65249520       3.83791513
C       -0.72889677       4.23656917       2.63920233
C       -1.20130269       2.94246256       2.12527476
C       -2.47857568       2.47777557       2.49216115
C       -2.95038079       1.23552669       2.06055714
C       -2.15070020       0.43621293       1.24926505
C       -0.88289276       0.88289276       0.88289276
C       -0.40266755       2.12062840       1.32057884
C        0.14843524       5.21149704       2.07730028
Cl       0.90670778       5.12211137       0.55036286
C        0.25980223       6.24360271       3.00718330
C        1.01987272       7.50792595       2.94557007
C        1.76649629       7.98105475       4.03590012
C        2.48148183       9.18088131       3.96662188
C        2.49932303       9.91217724       2.78433129
C        1.79074461       9.44512615       1.68405383
Br       1.85506753      10.40488080       0.05821733
C        1.04436893       8.26592806       1.76496342
H       -0.75783279       7.11560353      12.05963344
H       -0.90453521       8.78487967      11.47400435
H        0.70147103       8.15022415      11.86904658
H        2.34719920       4.57775559       8.27830354
H        1.44184462       4.47315262       5.70576936
H       -0.75956393       7.58518567       5.16268035
H       -1.88331822       6.28571941       5.56565943
H       -3.11465683       3.08501450       3.13453015
H       -3.93505226       0.89390270       2.36527710
H       -2.51801918      -0.53096000       0.91720013
H        0.60557644       2.41745342       1.04720399
H        1.83007226       7.41997859       4.96490541
H        3.03721336       9.53244690       4.83488708
H        3.07582940      10.83357271       2.72990119
H        0.48510099       7.93906424       0.89005102
C        7.34055712      -0.47245221      11.81045221
O        6.29329115      -0.58874459      10.84588082
C        5.93170812       0.58676942      10.25552887
O        6.41884905       1.67990040      10.52965097
C        4.91609958       0.35629508       9.25839155
C        4.28377179       1.23575756       8.40157771
C        3.40665383       0.47017495       7.59904684
C        3.52505198      -0.83881136       8.02488663
O        4.43708093      -0.90973333       9.03672700
C        2.88705961      -2.12959601       7.64169165
N        1.89716451      -1.95088697       6.58367802
N        2.35372914      -1.97919303       5.31604232
C        1.27813687      -1.78503057       4.54150083
C        1.45367650      -1.73278596       3.08257754
C        2.49015232      -2.47415729       2.48420279
C        2.71866926      -2.42091219       1.10688317
C        1.90918856      -1.62486111       0.30212851
C        0.88289276      -0.88289276       0.88289276
C        0.65689504      -0.92520723       2.26177252
C        0.11219611      -1.67196947       5.35619651
Cl      -1.48688249      -1.45264377       4.80000518
C        0.52915660      -1.78020379       6.68162339
C       -0.25113856      -1.75004374       7.93471812
C        0.17192256      -1.02129387       9.05724214
C       -0.57466333      -1.00116013      10.23952457
C       -1.78753703      -1.67737005      10.30735247
C       -2.23833925      -2.38014777       9.19662685
Br      -3.91099512      -3.25557180       9.26345393
C       -1.47364733      -2.43257215       8.02759773
H        8.29593526      -0.33646495      11.30066956
H        7.37780741      -1.40684738      12.37876443
H        7.15244614       0.34527322      12.51062679
H        4.45748684       2.30426434       8.35563742
H        2.76114707       0.83067399       6.80660428
H        2.40072167      -2.61037109       8.49633719
H        3.64490087      -2.82606676       7.26372943
H        3.14007449      -3.09500091       3.09912609
H        3.53101858      -2.99362554       0.66958794
H        2.09040942      -1.58221380      -0.76836392
H       -0.12686904      -0.30272387       2.68322615
H        1.08496741      -0.43146992       9.03837441
H       -0.21226572      -0.44156166      11.10082468
H       -2.37461031      -1.63937350      11.22288132
H       -1.84731365      -3.00854816       7.18277976
