177
Properties=species:S:1:pos:R:3 pbc="F F F"
C        0.00000000       0.00000000       0.00000000
C        0.87951758       0.87951758      -0.87951758
C        0.90464515       0.68996919      -2.25349697
C        1.72983788       1.49520683      -3.05188421
C        2.58819761       2.45715335      -2.49684179
C        2.55515160       2.61167861      -1.10440285
C        1.68209860       1.85697269      -0.30047654
C        3.60729439       3.14853909      -3.32662257
N        4.07140554       4.43853781      -3.16968018
N        5.21890145       4.67573367      -3.84305604
C        5.43347064       3.58383028      -4.58165125
C        6.68382501       3.46794635      -5.35869860
C        7.86880717       3.99984561      -4.82086806
C        9.09616346       3.83254110      -5.47111948
C        9.14779465       3.12332317      -6.66630871
Br      10.81044318       2.84954397      -7.52701220
C        7.98141598       2.61640106      -7.23140290
C        6.75176783       2.81132893      -6.59008957
C        4.38278365       2.63208194      -4.37352746
C        4.21206609       1.31092455      -5.03798561
C        3.56590517       5.54252618      -2.35286565
C        2.50997895       6.37687417      -3.04242705
C        2.84085971       7.05201344      -4.23372211
C        1.93266405       7.91665140      -4.84942175
C        0.68138216       8.12050161      -4.27907222
Cl      -0.42777646       9.21222290      -5.01602396
C        0.32583383       7.46044797      -3.10790490
C        1.23564070       6.59364493      -2.49268593
Cl       0.72422326       5.84449021      -1.02071360
H        0.30665260      -0.08592948      -2.71376385
H        1.71066488       1.31801177      -4.12626433
H        3.23406233       3.28115604      -0.58752630
H        1.67261873       2.01793767       0.77807060
H        7.84762399       4.53769038      -3.87237026
H        9.99939529       4.24944471      -5.02967803
H        8.01603229       2.06649323      -8.17033496
H        5.85431808       2.43633819      -7.07434575
H        3.32090923       1.32869732      -5.68314311
H        4.09917782       0.50390346      -4.29890236
H        5.05436756       1.02312270      -5.67741071
H        4.42038009       6.19325297      -2.11988814
H        3.24668848       5.14859295      -1.39204116
H        3.82618488       6.92256128      -4.68466430
H        2.21548104       8.43573687      -5.76260711
H       -0.65295854       7.63168997      -2.66532869
C       -0.87951758      -0.87951758      -0.87951758
C       -1.40871940      -0.37919546      -2.06019645
C       -2.22982236      -1.19278969      -2.85431687
C       -2.58968575      -2.49130844      -2.46119855
C       -2.05567004      -2.96162734      -1.25393567
C       -1.17679490      -2.17934952      -0.48340341
C       -3.62560757      -3.25852861      -3.19831987
N       -3.67969965      -4.62616193      -3.37376196
N       -4.89125597      -5.06134167      -3.78509352
C       -5.60097588      -3.95881575      -4.03916054
C       -7.02724338      -4.08176457      -4.40146201
C       -7.79532966      -5.09407979      -3.80011138
C       -9.17080781      -5.19356906      -4.03544716
C       -9.79145327      -4.27299005      -4.87298322
Br     -11.65954206      -4.36980411      -5.15765319
C       -9.04330970      -3.28295879      -5.50295146
C       -7.66197792      -3.20565134      -5.28555706
C       -4.80812958      -2.79196180      -3.78830167
C       -5.19853672      -1.36998751      -3.99245201
C       -2.67609894      -5.66143607      -3.12376198
C       -1.74188468      -5.89843535      -4.28896014
C       -2.27654544      -6.33201436      -5.51803546
C       -1.44462315      -6.66410641      -6.59000765
C       -0.06517737      -6.57030920      -6.44546941
Cl       0.96459885      -7.01209301      -7.75297624
C        0.48888412      -6.13727423      -5.24579659
C       -0.34519509      -5.80363376      -4.17314270
Cl       0.42959373      -5.31095639      -2.70806441
H       -1.20852477       0.63967140      -2.36563360
H       -2.61539590      -0.76219896      -3.77734612
H       -2.33659156      -3.92459584      -0.84155727
H       -0.76772510      -2.58659940       0.44183869
H       -7.32691230      -5.80853482      -3.12223750
H       -9.74291905      -5.98333477      -3.55226420
H       -9.52370078      -2.56436455      -6.16479514
H       -7.09920351      -2.44548277      -5.82031574
H       -4.59923149      -0.92995183      -4.80356635
H       -5.04589874      -0.77870579      -3.07737911
H       -6.24949110      -1.23357757      -4.27183230
H       -3.21640461      -6.59663549      -2.92048111
H       -2.16038492      -5.43124848      -2.19568919
H       -3.35579877      -6.43370303      -5.64390865
H       -1.88063882      -7.00765242      -7.52553379
H        1.56961934      -6.07375260      -5.13992687
C       -0.87951758       0.87951758       0.87951758
C       -0.84816094       2.25940288       0.74054748
C       -1.65054702       3.06017475       1.56620715
C       -2.44819524       2.51148023       2.58251727
C       -2.44363966       1.11606237       2.71153102
C       -1.69548067       0.29907733       1.84498984
C       -3.12169443       3.37739618       3.58336543
N       -4.33008728       3.14263280       4.20690345
N       -4.52356890       3.91575898       5.29836327
C       -3.50787509       4.78298866       5.30808841
C       -3.35387013       5.70687375       6.44972608
C       -3.69490455       5.25728513       7.73733115
C       -3.47784781       6.05856224       8.86341399
C       -2.90972694       7.31855183       8.70914776
Br      -2.56679282       8.38895607      10.23125046
C       -2.59459183       7.79464125       7.43998685
C       -2.84020657       6.99907662       6.31390313
C       -2.65213074       4.55448197       4.18178035
C       -1.44119484       5.32770380       3.79207760
C       -5.37874941       2.16331734       3.91923024
C       -6.39165529       2.63656472       2.90106016
C       -7.16189883       3.78192066       3.18277577
C       -8.18094851       4.19611038       2.32167831
C       -8.44579900       3.46723629       1.16792068
Cl      -9.72393947       3.95457558       0.12195535
C       -7.69532914       2.33736139       0.86149617
C       -6.67402951       1.92405605       1.72388599
Cl      -5.81693355       0.48822736       1.28426617
H       -0.19648803       2.72528249       0.01271644
H       -1.60140934       4.13768793       1.41584371
H       -2.97528589       0.61458358       3.51287520
H       -1.73106310      -0.78418145       1.96560415
H       -4.11903223       4.26222629       7.87642611
H       -3.74549705       5.68357636       9.84944461
H       -2.15605549       8.78304545       7.31375954
H       -2.61830645       7.41269833       5.33399724
H       -1.62523221       5.86044059       2.84707687
H       -0.57030892       4.66787566       3.66379905
H       -1.14362041       6.08631264       4.52496792
H       -5.90648620       1.96450309       4.86253192
H       -4.91170208       1.21794980       3.65767070
H       -6.98424691       4.35446201       4.09470153
H       -8.76990292       5.07728647       2.56663564
H       -7.91455711       1.76952195      -0.04001894
C        0.87951758      -0.87951758       0.87951758
C        1.49857541      -2.00144842       0.34808748
C        2.29351588      -2.81267393       1.17073911
C        2.43708129      -2.56097163       2.54413983
C        1.78354021      -1.43185465       3.05583820
C        1.03944942      -0.57320013       2.22689828
C        3.10025254      -3.54179794       3.44040557
N        3.84468392      -3.26589494       4.56904467
N        4.03256876      -4.34650477       5.35861763
C        3.54627376      -5.38252851       4.67014990
C        3.49018868      -6.71399478       5.30628650
C        3.21027718      -6.79782700       6.68141665
C        3.05125715      -8.03642046       7.31214642
C        3.16551972      -9.20503057       6.56687624
Br       2.90287298     -10.88277929       7.40134709
C        3.47375260      -9.14433798       5.21112937
C        3.65957314      -7.90233655       4.59127663
C        3.04408880      -4.94163473       3.40266952
C        2.46608210      -5.77893579       2.31595835
C        4.39030129      -2.00301338       5.06798233
C        5.75436166      -1.66559543       4.50932309
C        6.83062711      -2.54056862       4.75539953
C        8.12852925      -2.22005773       4.35015022
C        8.36798854      -1.01707643       3.69589101
Cl       9.97190733      -0.60266869       3.22589438
C        7.32249004      -0.13870602       3.43299064
C        6.02268787      -0.46118764       3.83809604
Cl       4.79078828       0.70503080       3.50366960
H        1.35933835      -2.26703140      -0.69188279
H        2.76806309      -3.67753204       0.70934585
H        1.78377161      -1.20299196       4.11598111
H        0.55946171       0.30567572       2.65869980
H        3.09416832      -5.88961318       7.27390312
H        2.82895528      -8.07262623       8.37693650
H        3.57095931     -10.05670830       4.62519287
H        3.93597334      -7.88844136       3.54058733
H        3.12996744      -5.76417384       1.43860838
H        1.47283817      -5.41345259       2.01569288
H        2.33366674      -6.83200536       2.58922887
H        4.47892407      -2.09504360       6.15955354
H        3.65387884      -1.21924016       4.91420358
H        6.66675168      -3.47920164       5.28745713
H        8.94529347      -2.90664979       4.56188177
H        7.52078273       0.80339447       2.92667187
