197
Properties=species:S:1:pos:R:3 pbc="F F F"
C        0.00000000       0.00000000       0.00000000
C        0.88135433       0.88135433      -0.88135433
C        1.65839678       1.88112829      -0.30440874
C        2.47228409       2.68023044      -1.11458785
C        2.49535374       2.51055868      -2.50822925
C        1.69150445       1.50814192      -3.06837030
C        0.90159450       0.68459722      -2.25958577
C        3.29809504       3.41121109      -3.35182759
C        3.29817962       4.81101900      -3.38552961
C        2.47295116       5.74375372      -2.56646051
C        4.25393713       5.16995661      -4.38360166
N        4.79804611       4.07814447      -4.92125397
N        4.23269697       3.00931148      -4.30895717
C        4.67042291       1.73053579      -4.71809680
S        5.80109476       1.61465792      -6.00608193
C        5.73132337      -0.08658770      -5.90381428
C        4.86018303      -0.47151865      -4.90029507
N        4.27169606       0.58385259      -4.20521869
C        4.59199492      -1.86307461      -4.56262098
C        4.66954111      -2.88296721      -5.52791577
C        4.44190406      -4.21520372      -5.17746617
C        4.13001544      -4.54617305      -3.85930434
C        4.03491058      -3.54171463      -2.89666733
C        4.25796523      -2.20927065      -3.24627992
C        4.70332770       6.48646103      -4.86450422
C        3.86450130       7.60769180      -4.88802692
C        4.32672982       8.83772443      -5.37492460
C        5.62845435       8.95136077      -5.85741341
C        6.47508496       7.84885965      -5.85774612
C        6.01302341       6.62634749      -5.36276916
H        1.63946498       2.04925924       0.76915435
H        3.08100363       3.44848427      -0.64343757
H        1.67857233       1.34452890      -4.14367034
H        0.30869401      -0.10258649      -2.71718062
H        1.99586618       5.25730110      -1.71404889
H        1.67261209       6.17433620      -3.17558074
H        3.09002247       6.55569764      -2.16791200
H        6.32592481      -0.70256549      -6.56317025
H        4.89842736      -2.65388656      -6.56532672
H        4.50781059      -4.99410222      -5.93274426
H        3.95903629      -5.58321801      -3.58627056
H        3.78799811      -3.79902496      -1.86816147
H        4.18274428      -1.43667347      -2.48255489
H        2.83308325       7.54630089      -4.55812005
H        3.65805709       9.69446654      -5.38437122
H        7.48814161       7.92045509      -6.24415556
H        6.68465087       5.76882738      -5.37795162
C        6.09650203      10.21324914      -6.36943793
C        6.48849196      11.27008065      -6.79825847
Br       7.12230652      12.97888782      -7.49162501
C       -0.88135433      -0.88135433      -0.88135433
C       -1.10348154      -2.20953459      -0.53091768
C       -1.91985390      -3.01118207      -1.33606641
C       -2.49612431      -2.50558374      -2.51243362
C       -2.24457566      -1.16957534      -2.85386567
C       -1.45648744      -0.35453649      -2.03475357
C       -3.28839196      -3.38514005      -3.38760172
C       -2.93669958      -4.62655694      -3.93147171
C       -1.65642530      -5.36974361      -3.75699647
C       -4.06324179      -5.03829376      -4.70595985
N       -5.03054013      -4.12305936      -4.64384507
N       -4.57893250      -3.12026707      -3.85176604
C       -5.45268697      -2.03244075      -3.63392779
S       -6.96537031      -2.00891029      -4.44755400
C       -7.30807378      -0.49054078      -3.74993539
C       -6.26186463      -0.08806494      -2.93902988
N       -5.20663054      -0.99541705      -2.85871975
C       -6.26039854       1.16531484      -2.19645758
C       -6.94927032       2.29881294      -2.66403229
C       -6.96389972       3.48100774      -1.92127453
C       -6.28762666       3.54817093      -0.70369099
C       -5.58806393       2.43559312      -0.23739248
C       -5.56898084       1.25467724      -0.98067091
C       -4.29863261      -6.25389673      -5.50176360
C       -3.26644934      -6.94124902      -6.15252165
C       -3.53800036      -8.08277757      -6.91860091
C       -4.84809068      -8.53654507      -7.05259278
C       -5.89112760      -7.86257891      -6.42798422
C       -5.61480391      -6.72992979      -5.65740636
H       -0.64879069      -2.63201226       0.36123309
H       -2.09071181      -4.04329113      -1.03892254
H       -2.67027147      -0.73898523      -3.75751488
H       -1.29970620       0.68514609      -2.30872803
H       -1.04401523      -4.98192785      -2.94127308
H       -1.05321687      -5.30207816      -4.66723398
H       -1.85002493      -6.42505108      -3.53855609
H       -8.24135629       0.01285752      -3.95803081
H       -7.47487129       2.28007810      -3.61507433
H       -7.50259972       4.34891641      -2.29276932
H       -6.30448228       4.46607592      -0.12368248
H       -5.05697602       2.48847254       0.71136885
H       -5.02050101       0.39361769      -0.60174238
H       -2.24018041      -6.59366430      -6.10365948
H       -2.72141547      -8.60003378      -7.41544560
H       -6.91908263      -8.19783946      -6.53583017
H       -6.44327001      -6.20665641      -5.18150344
C       -5.12577464      -9.70212317      -7.85129129
C       -5.35833496     -10.67829483      -8.52020129
Br      -5.73436532     -12.25668184      -9.60177219
C       -0.88135433       0.88135433       0.88135433
C       -1.50912766       0.33720369       1.99760246
C       -2.30810788       1.15065795       2.80833657
C       -2.51308697       2.50433319       2.49672150
C       -1.88391535       3.02609694       1.35800438
C       -1.05732530       2.22537117       0.56308103
C       -3.41886909       3.32529311       3.31697153
C       -4.74604758       3.06742791       3.68125273
C       -5.57800215       1.88426985       3.32089338
C       -5.15097420       4.18651945       4.47000174
N       -4.15275360       5.06302701       4.58166394
N       -3.10080328       4.55763820       3.89252413
C       -1.91444557       5.32359474       3.88101518
S       -1.91290111       6.86033179       4.64860170
C       -0.29808328       7.09751630       4.15295037
C        0.15027443       6.00111025       3.43812363
N       -0.78106747       4.97212211       3.30757776
C        1.49481151       5.89991382       2.88643897
C        2.21537438       7.04055600       2.48930805
C        3.51582553       6.92580743       1.99418460
C        4.11250782       5.67021578       1.88543876
C        3.40214228       4.53061409       2.26139149
C        2.10076957       4.64331639       2.75242768
C       -6.42531907       4.48617664       5.14279724
C       -7.66102458       4.05391736       4.64527808
C       -8.85286867       4.38051592       5.30599425
C       -8.81848980       5.15655137       6.46218736
C       -7.60513361       5.60947044       6.96708667
C       -6.41819501       5.27375153       6.31019352
H       -1.38671370      -0.71362400       2.24648017
H       -2.78072823       0.70940913       3.68278810
H       -2.01763739       4.06917655       1.07995763
H       -0.56001045       2.66196551      -0.29868782
H       -4.99257323       1.05566178       2.91898116
H       -6.31060886       2.15659648       2.55532368
H       -6.10929051       1.50456815       4.19977343
H        0.23019961       8.00357392       4.41315527
H        1.77191572       8.03082463       2.55095861
H        4.06271381       7.81571871       1.69344773
H        5.12615945       5.58232012       1.50592817
H        3.86609506       3.54979275       2.17343693
H        1.56012811       3.74428422       3.04446960
H       -7.72913645       3.48243989       3.72592785
H       -9.80055584       4.03484257       4.90149644
H       -7.56541313       6.22717873       7.86016040
H       -5.47569450       5.64356360       6.71217177
C      -10.04579247       5.50176489       7.13163174
C      -11.07365846       5.79088121       7.69229140
Br     -12.73563083       6.25835785       8.59883066
C        0.88135433      -0.88135433       0.88135433
C        1.26343388      -0.43706971       2.14343022
C        2.06307983      -1.25203224       2.95199031
C        2.51391711      -2.50199414       2.49823041
C        2.13001012      -2.92108409       1.21692246
C        1.30318964      -2.12469715       0.41789070
C        3.41801528      -3.31154853       3.33156991
C        4.62910617      -2.93849520       3.92712686
C        5.30923415      -1.61380380       3.86012743
C        5.09299984      -4.10177551       4.61272005
N        4.23594449      -5.11005385       4.45144622
N        3.21992488      -4.64912919       3.68191154
C        2.17803986      -5.55524367       3.38577197
S        2.31117964      -7.17828197       3.93237299
C        0.83278774      -7.54914475       3.16661747
C        0.32002586      -6.42525262       2.54368097
N        1.09061604      -5.27368655       2.69646475
C       -0.93844857      -6.42019799       1.80979187
C       -1.41519591      -7.57167006       1.15801552
C       -2.64013019      -7.55619475       0.48810194
C       -3.40335791      -6.38962965       0.45687499
C       -2.93361333      -5.23726983       1.08620679
C       -1.70754791      -5.24998904       1.75253338
C        6.29721594      -4.32914567       5.42793133
C        7.50663981      -3.66469776       5.18888244
C        8.63584638      -3.92756945       5.97596302
C        8.56783254      -4.87012887       6.99926712
C        7.38249107      -5.55296464       7.24623501
C        6.25617220      -5.28109983       6.46486803
H        0.94846683       0.53706043       2.50816348
H        2.34132194      -0.89188341       3.93972011
H        2.45873842      -3.88162651       0.82640664
H        0.99836437      -2.48553269      -0.56060891
H        4.66188167      -0.81858199       3.48675250
H        6.17041079      -1.66485063       3.18726760
H        5.65381133      -1.30678119       4.85303958
H        0.42058969      -8.54666665       3.21927323
H       -0.83660448      -8.49162130       1.15485070
H       -2.99832953      -8.45392242      -0.00914026
H       -4.35876353      -6.38007069      -0.05921832
H       -3.52730996      -4.32524256       1.05920202
H       -1.35571238      -4.34282338       2.24151470
H        7.60766887      -2.95442218       4.37541315
H        9.56424928      -3.40058694       5.77205863
H        7.31988353      -6.30067044       8.03219830
H        5.33690351      -5.83063584       6.66389052
C        9.73346118      -5.14784843       7.79787949
C       10.70967517      -5.38043856       8.46671735
Br      12.28813062      -5.75651713       9.54817160
