173
Properties=species:S:1:pos:R:3 pbc="F F F"
C        0.00000000       0.00000000       0.00000000
C        0.88211788       0.88211788      -0.88211788
C        2.03469894       1.45482377      -0.35056351
C        2.83296802       2.26260484      -1.15583368
C        2.47161163       2.50256314      -2.48539446
C        1.31169600       1.92936121      -3.02450907
C        0.52364197       1.10315699      -2.21296560
C        0.95962602       2.15656394      -4.42839384
N       -0.22707410       2.69263773      -4.88092013
C       -1.35975839       3.19738426      -4.10609871
C       -1.61574116       4.66807727      -4.35711802
C       -2.43188117       5.03895369      -5.44584059
C       -2.68565369       6.38135639      -5.72581955
C       -2.12680228       7.36338899      -4.92107422
F       -2.37157059       8.65262284      -5.18741213
C       -1.31396883       7.02987015      -3.84551163
C       -1.05402668       5.68587508      -3.56753821
Cl      -0.03083951       5.33855298      -2.22068565
N       -0.33325883       2.69657941      -6.22724279
C        0.86112955       2.27846942      -6.67726413
C        1.12060869       2.24548726      -8.12150554
C        0.54110387       3.22120044      -8.95134962
C        0.77277391       3.22491426     -10.32943776
C        1.58927034       2.25098413     -10.89801809
C        2.15690454       1.27151386     -10.08632690
C        1.91997629       1.25686369      -8.70966311
C        1.70273654       1.93881299      -5.57817994
Cl       3.31110862       1.37528976      -5.65384110
H        2.32081315       1.27609172       0.68187260
H        3.74131800       2.70766166      -0.75363545
H        3.10799610       3.14068454      -3.09491975
H       -0.36323327       0.62217811      -2.61685793
H       -1.20805520       2.99520902      -3.04490739
H       -2.23097178       2.60050288      -4.40558847
H       -2.85785772       4.27484526      -6.09554460
H       -3.30827540       6.66450798      -6.56888819
H       -0.88973243       7.82303069      -3.23789952
H       -0.09859478       3.99038360      -8.52234687
H        0.31598378       3.98830993     -10.95448386
H        1.77150239       2.25997790     -11.96946070
H        2.35185787       0.46139985      -8.10975650
C        2.99751273       0.26093045     -10.67428866
C        3.70152210      -0.58543316     -11.16670663
Br       4.83984570      -1.95393153     -11.96290485
C       -0.88211788      -0.88211788      -0.88211788
C       -0.40196969      -1.32694572      -2.11117081
C       -1.21078432      -2.12590958      -2.91471262
C       -2.49884227      -2.46911037      -2.49161660
C       -2.98700100      -2.02266628      -1.25589898
C       -2.16026508      -1.23425483      -0.44524465
C       -4.32388186      -2.41654799      -0.80415395
N       -5.33939409      -1.55213764      -0.45495202
C       -5.35499214      -0.09063626      -0.49809617
C       -6.41193262       0.44348067      -1.44100218
C       -7.72359907       0.62719955      -0.95651359
C       -8.73474577       1.10365012      -1.79042661
C       -8.44404654       1.40035891      -3.11397329
F       -9.41346691       1.86011335      -3.91511082
C       -7.16355702       1.22410138      -3.62195731
C       -6.15119397       0.74122840      -2.78942105
Cl      -4.58325269       0.53857009      -3.48371652
N       -6.43498963      -2.17978825       0.02421452
C       -6.19001131      -3.49055981      -0.13629199
C       -7.22743081      -4.46958805       0.20941737
C       -8.58049220      -4.14374556       0.01058383
C       -9.59405280      -5.05425830       0.32118517
C       -9.26785599      -6.30617627       0.83575970
C       -7.93085405      -6.63346930       1.04957806
C       -6.91429120      -5.72303183       0.75081995
C       -4.87865003      -3.67896399      -0.66211546
Cl      -4.13098367      -5.16355074      -1.04570507
H        0.59596018      -1.06237594      -2.44861651
H       -0.84221188      -2.48731889      -3.87308434
H       -3.11500080      -3.09073089      -3.13786869
H       -2.50436458      -0.90201664       0.53057844
H       -4.36455551       0.28754836      -0.75505407
H       -5.55060596       0.24784326       0.52764313
H       -7.96551778       0.37690105       0.07608459
H       -9.74535029       1.23726090      -1.41703137
H       -6.97070104       1.46268842      -4.66318516
H       -8.85226598      -3.16967665      -0.39219307
H      -10.63468774      -4.78383492       0.15974510
H      -10.05844709      -7.01381640       1.07132250
H       -5.88435951      -5.99729862       0.95864391
C       -7.59288729      -7.92622619       1.58638164
C       -7.30984013      -9.00891008       2.03595464
Br      -6.85217680     -10.75951838       2.76287616
C       -0.88211788       0.88211788       0.88211788
C       -2.15839386       1.23244427       0.44924810
C       -2.95712789       2.04102934       1.25324931
C       -2.47421268       2.50393860       2.48141795
C       -1.18974393       2.15505393       2.92076840
C       -0.39927003       1.32625797       2.11423656
C       -0.70521139       2.61454909       4.22482331
N        0.44216608       3.34742552       4.44122431
C        1.39234919       3.87374313       3.46233064
C        1.47155968       5.38505740       3.49595641
C        2.35437068       5.99845030       4.40883349
C        2.45259942       7.38737597       4.48674570
C        1.67050844       8.17421333       3.65395604
F        1.76556729       9.50790225       3.72612942
C        0.78738826       7.59975878       2.74904243
C        0.68355661       6.20879824       2.67414499
Cl      -0.43725136       5.55793154       1.53321621
N        0.70880730       3.54977637       5.74959431
C       -0.35325481       3.05637982       6.40722847
C       -0.42914366       3.19171742       7.86674041
C        0.10634432       4.33537880       8.48461945
C        0.04473369       4.50103127       9.87082835
C       -0.55487089       3.52328488      10.66011679
C       -1.07597644       2.37986854      10.05890031
C       -1.00751661       2.20429744       8.67468903
C       -1.26665852       2.46916916       5.48390179
Cl      -2.76090132       1.73114755       5.84819062
H       -2.53985604       0.87978992      -0.50461370
H       -3.96007236       2.31324089       0.92930187
H       -3.11408452       3.13832710       3.09118876
H        0.58772185       1.01637044       2.44715418
H        1.14277356       3.51033169       2.46450308
H        2.36730128       3.43362964       3.70879121
H        2.95704429       5.38839566       5.08118078
H        3.12756505       7.85725951       5.19542630
H        0.18750935       8.24438700       2.11432014
H        0.57725913       5.10971753       7.88167730
H        0.46409872       5.39289896      10.32997733
H       -0.60569047       3.65782452      11.73742600
H       -1.39493395       1.28738382       8.24069645
C       -1.69188629       1.36584726      10.87499829
C       -2.20771079       0.51660444      11.55848034
Br      -3.04175538      -0.85654937      12.66361302
C        0.88211788      -0.88211788       0.88211788
C        0.36232095      -1.42209827       2.05566700
C        1.17085654      -2.22079043       2.85975956
C        2.49752876      -2.46878870       2.49325177
C        3.02558002      -1.92638034       1.31360591
C        2.20017012      -1.13877172       0.50082272
C        4.40538372      -2.22060996       0.91859013
N        5.38708466      -1.28378699       0.67561211
C        5.31646265       0.17152453       0.79878645
C        6.28832564       0.70721697       1.82834546
C        7.61163859       0.98929588       1.43057039
C        8.54707010       1.47126994       2.34572209
C        8.16847134       1.67536729       3.66455688
F        9.06504212       2.14031413       4.54373639
C        6.87453566       1.40106976       4.08794705
C        5.93818532       0.91254840       3.17374970
Cl       4.34910401       0.58565465       3.76494976
N        6.54125229      -1.82257010       0.22674098
C        6.36351829      -3.15174486       0.30159995
C        7.47260779      -4.05161948      -0.03662578
C        8.79197174      -3.66481044       0.25687175
C        9.87144255      -4.49969124      -0.04400786
C        9.64598333      -5.73587884      -0.64358961
C        8.34352469      -6.12240331      -0.95118270
C        7.26170767      -5.28708106      -0.66228565
C        5.03853635      -3.44084886       0.74034427
Cl       4.35755336      -4.98335756       0.99932856
H       -0.66597282      -1.23183652       2.34916857
H        0.77218372      -2.65603469       3.77439670
H        3.11236836      -3.09211833       3.13911369
H        2.57706617      -0.73293391      -0.43419730
H        4.29348737       0.48006972       1.01864356
H        5.54768581       0.57839367      -0.19417257
H        7.92316629       0.81212944       0.40149530
H        9.56710931       1.68069559       2.03870704
H        6.61212129       1.56872740       5.12780389
H        8.98517889      -2.70214394       0.72681287
H       10.88456209      -4.18292914       0.19128634
H       10.48747379      -6.38491796      -0.87145076
H        6.26199425      -5.60443348      -0.94341352
C        8.10988043      -7.39866571      -1.57581431
C        7.91420337      -8.46753547      -2.09894327
Br       7.59781011     -10.19580748      -2.94479857
