194
Properties=species:S:1:pos:R:3 pbc="F F F"
C        1.79120522       1.79120522      -1.79120522
C        2.24874941       1.30945982      -3.01313312
C        3.02125502       2.13495755      -3.83395193
C        3.35034249       3.44317514      -3.44050258
C        2.93326884       3.88518215      -2.17871493
C        2.13354431       3.07291483      -1.36753398
C        4.11105339       4.29719137      -4.36172562
N        3.72604864       5.53335444      -4.85011774
N        4.61722895       6.05564564      -5.72719702
C        5.62540878       5.16390000      -5.80224554
C        6.81537858       5.45949558      -6.63147072
C        7.71493393       4.46803929      -7.05541114
C        8.86570051       4.79156471      -7.78811781
C        9.11761528       6.11436286      -8.13402798
C        8.22655311       7.11398169      -7.76036176
C        7.08684090       6.78648839      -7.01437099
C        5.34207205       4.05240751      -4.95231167
Cl       6.33354236       2.70058811      -4.62346909
C        2.68952036       6.42792647      -4.32797917
C        1.52425918       6.75011228      -5.23821651
C        1.37855126       8.07931982      -5.68831873
C        0.22582627       8.48926515      -6.36466279
C       -0.78546392       7.57380896      -6.60993050
F       -1.90798852       7.97283481      -7.22409493
C       -0.66125451       6.25456433      -6.20826248
C        0.48707526       5.84448072      -5.52379582
Cl       0.50605127       4.20793753      -4.99671595
H        2.00056759       0.30516057      -3.34551557
H        3.34543921       1.75266059      -4.80028761
H        3.21354127       4.86786782      -1.80896849
H        1.78320314       3.45022302      -0.41056034
H        7.54952117       3.41805198      -6.84089535
H        9.55206549       4.00116270      -8.08248837
H        8.40610801       8.14946058      -8.03671682
H        6.40720877       7.58678198      -6.72651355
H        3.22138857       7.35118104      -4.05653049
H        2.29865792       6.04377694      -3.38725757
H        2.14812024       8.82120721      -5.48159294
H        0.10123372       9.52144288      -6.67922121
H       -1.47360244       5.56216266      -6.40602013
C       10.30059401       6.44732418      -8.88455985
C       11.29133869       6.72617928      -9.51313030
Br      12.89328905       7.17706440     -10.52947554
C       -1.79120522      -1.79120522      -1.79120522
C       -2.28590356      -1.29340136      -2.99203743
C       -3.05833117      -2.11783054      -3.81400279
C       -3.35032777      -3.44118393      -3.44250851
C       -2.89605905      -3.90102232      -2.20008456
C       -2.09635251      -3.08900837      -1.38863223
C       -4.11256650      -4.29168951      -4.36571436
N       -3.71183061      -5.50821915      -4.88947107
N       -4.61066561      -6.03099075      -5.75841526
C       -5.63927773      -5.16030140      -5.79197519
C       -6.84059889      -5.46411348      -6.60163251
C       -7.77049197      -4.48382948      -6.98406292
C       -8.92989519      -4.81677708      -7.69871077
C       -9.16075955      -6.13703482      -8.06821175
C       -8.24028895      -7.12457929      -7.73602833
C       -7.09172731      -6.78819655      -7.00777642
C       -5.36131901      -4.06143908      -4.92403314
Cl      -6.37425023      -2.73924830      -4.54410103
C       -2.64495472      -6.39076245      -4.40970883
C       -1.49338178      -6.66742003      -5.35178616
C       -1.32897429      -7.98305815      -5.83415737
C       -0.18287417      -8.35276085      -6.54411919
C        0.80275181      -7.41012445      -6.79090289
F        1.91980251      -7.77092216      -7.43782158
C        0.65897871      -6.10292408      -6.35762694
C       -0.48255199      -5.73316157      -5.63963824
Cl      -0.52522572      -4.10919950      -5.07627953
H       -2.06686330      -0.27692577      -3.30745466
H       -3.41194436      -1.72200364      -4.76443942
H       -3.14681667      -4.89740976      -1.84615114
H       -1.71690917      -3.47906940      -0.44800793
H       -7.62309723      -3.43532431      -6.75004695
H       -9.63949818      -4.03554410      -7.96067428
H       -8.40349724      -8.15755971      -8.03122845
H       -6.38878412      -7.57932434      -6.75239584
H       -3.15064107      -7.33117747      -4.14728154
H       -2.24181129      -6.01848356      -3.46939759
H       -2.07759308      -8.74604116      -5.62728614
H       -0.04299453      -9.37490382      -6.88399946
H        1.45162261      -5.38865268      -6.55755028
C      -10.35254922      -6.47973986      -8.80018896
C      -11.35067307      -6.76675532      -9.41321988
Br     -12.96455492      -7.23083505     -10.40443902
C       -1.79120522       1.79120522       1.79120522
C       -2.09977696       3.08549392       1.38607147
C       -2.93989011       3.87347353       2.17680086
C       -3.47235537       3.38123692       3.38042791
C       -3.09725937       2.09905936       3.80084719
C       -2.28151905       1.29565780       2.99681627
C       -4.40095388       4.22091145       4.14810504
N       -5.69276200       3.89482063       4.52193819
N       -6.32193753       4.89916422       5.17896986
C       -5.42353899       5.90030031       5.26771502
C       -5.76684145       7.14077956       5.99872388
C       -5.06215608       8.34395225       5.83227604
C       -5.37516547       9.48358503       6.58663254
C       -6.42203366       9.44336028       7.50061218
C       -7.16203743       8.27743190       7.66142723
C       -6.83402623       7.13717135       6.91650269
C       -4.20564500       5.50431151       4.63683471
Cl      -2.73592148       6.37095141       4.55072667
C       -6.31306080       2.56790688       4.56445832
C       -7.51126867       2.33012988       3.67118943
C       -8.76238859       2.10174706       4.28205416
C       -9.86514333       1.68253073       3.53208016
C       -9.73312866       1.50070551       2.16444137
F      -10.77808286       1.06205448       1.44880387
C       -8.52735634       1.74505319       1.52916278
C       -7.42071117       2.15590173       2.27873891
Cl      -5.95126911       2.35179527       1.40764037
H       -1.70917068       3.48705660       0.45501646
H       -3.19555144       4.87309301       1.82974296
H       -3.43817222       1.69985787       4.75234748
H       -2.03720906       0.28718135       3.31959609
H       -4.25857163       8.43941734       5.11047952
H       -4.79539752      10.39295782       6.44736122
H       -7.99100631       8.23834531       8.36293378
H       -7.42255007       6.23332903       7.06462521
H       -6.59310382       2.41877793       5.61721833
H       -5.57078390       1.79787880       4.36102974
H       -8.88086216       2.21127963       5.35877860
H      -10.81785715       1.47380615       4.01023451
H       -8.45124299       1.58519758       0.45813978
C       -6.74232691      10.61292675       8.27722438
C       -7.01057251      11.59243867       8.92763710
Br      -7.44430295      13.17622660       9.97929945
C        1.79120522      -1.79120522       1.79120522
C        2.07551179      -3.09542184       1.40040872
C        2.91565387      -3.88411299       2.19039764
C        3.47232510      -3.38256024       3.37913487
C        3.12155605      -2.08927759       3.78633229
C        2.30580918      -1.28570732       2.98247662
C        4.39986888      -4.22453684       4.14556465
N        5.70142318      -3.91180518       4.49629247
N        6.32567512      -4.91567674       5.15871976
C        5.41452908      -5.90241443       5.27461081
C        5.75068004      -7.13720774       6.01845711
C        5.02666613      -8.33235149       5.87936674
C        5.33429763      -9.46555145       6.64553396
C        6.39468135      -9.42743491       7.54388986
C        7.15339675      -8.27011628       7.67738353
C        6.83091121      -7.13593884       6.92085022
C        4.19342133      -5.49792637       4.65544352
Cl       2.71045857      -6.34445161       4.60268938
C        6.34103978      -2.59348959       4.51089662
C        7.52951705      -2.38568966       3.59738126
C        8.79241726      -2.16669613       4.18707642
C        9.89009902      -1.77408599       3.41556921
C        9.74100199      -1.60980773       2.04746582
F       10.78166520      -1.19644737       1.31082865
C        8.52286203      -1.84576222       1.43294805
C        7.42140367      -2.22995592       2.20399221
Cl       5.93694045      -2.41701703       1.35674726
H        1.66588168      -3.50449302       0.48086904
H        3.15207910      -4.89213461       1.85417370
H        3.48176372      -1.68156151       4.72705234
H        2.08050914      -0.26933854       3.29413882
H        4.21149929      -8.42647206       5.17049714
H        4.73973667     -10.36836809       6.52761181
H        7.99285057      -8.23301612       8.36641872
H        7.43427521      -6.23865197       7.04757712
H        6.63829872      -2.43348146       5.55731991
H        5.60691456      -1.81581949       4.30695838
H        8.92481369      -2.26263042       5.26347628
H       10.85246449      -1.57233403       3.87709929
H        8.43361348      -1.70004413       0.36092274
C        6.70949080     -10.59035144       8.33263581
C        6.97314371     -11.56429403       8.99321053
Br       7.39944817     -13.13907682      10.06130400
C       -0.00445707       0.01189536      -1.78238275
H       -0.66409135       0.67374010      -2.43557963
H        0.65740317      -0.63156657      -2.45157240
C       -0.90989263      -0.90692880      -0.91072765
C        0.90977584       0.90977584      -0.90977584
C       -0.00465871       1.77757030       0.00794375
H       -0.66225468       2.44313916      -0.64384735
H        0.64322798       2.43503045       0.67728295
C       -1.78241447       0.00034974      -0.00472694
H       -2.45427497      -0.65498947       0.64260836
H       -2.43311707       0.67328779      -0.65473579
C       -0.91132561       0.90220522       0.91563759
C       -0.01476271      -0.02253852       1.78660255
H       -0.67934791      -0.69751639       2.42135241
H        0.63392994       0.61504881       2.47327442
C        0.01484550      -1.77751727      -0.01636693
H        0.67870853      -2.42144646      -0.68295456
H       -0.62264859      -2.45592969       0.64226336
C        1.78714474       0.01002794       0.00389507
H        2.44202412       0.67113390       0.66197326
H        2.45385902      -0.65136977      -0.64189061
C        0.91606151      -0.90478549       0.90901405
