165
Properties=species:S:1:pos:R:3 pbc="F F F"
C        0.00000000       0.00000000       0.00000000
C        0.88130120       0.88130120      -0.88130120
C        1.33884539       0.39955579      -2.10322910
C        2.11135100       1.22505352      -2.92404790
C        2.44043847       2.53327112      -2.53059855
C        2.02336482       2.97527813      -1.26881091
C        1.22364028       2.16301081      -0.45762995
C        3.20114937       3.38728734      -3.45182159
N        2.81614461       4.62345042      -3.94021372
N        3.70732493       5.14574162      -4.81729299
C        4.71550475       4.25399598      -4.89234152
C        5.90547456       4.54959156      -5.72156670
C        6.80502991       3.55813527      -6.14550712
C        7.95579648       3.88166069      -6.87821379
C        8.20771126       5.20445884      -7.22412396
Br       9.76002919       5.64137440      -8.20898028
C        7.31664909       6.20407766      -6.85045774
C        6.17693687       5.87658437      -6.10446696
C        4.43216802       3.14250349      -4.04240764
Cl       5.42363834       1.79068408      -3.71356507
C        1.77961634       5.51802244      -3.41807515
C        0.61435516       5.84020826      -4.32831249
C        0.46864723       7.16941579      -4.77841471
C       -0.68407775       7.57936112      -5.45475877
C       -1.69536795       6.66390493      -5.70002647
F       -2.81789254       7.06293078      -6.31419091
C       -1.57115853       5.34466031      -5.29835846
C       -0.42282877       4.93457670      -4.61389180
Cl      -0.40385275       3.29803351      -4.08681192
H        1.09066357      -0.60474346      -2.43561155
H        2.43553518       0.84275657      -3.89038359
H        2.30363724       3.95796379      -0.89906446
H        0.87329911       2.54031899       0.49934368
H        6.63961714       2.50814795      -5.93099132
H        8.64216147       3.09125868      -7.17258434
H        7.49620398       7.23955656      -7.12681279
H        5.49730475       6.67687795      -5.81660953
H        2.31148454       6.44127701      -3.14662646
H        1.38875390       5.13387292      -2.47735355
H        1.23821621       7.91130319      -4.57168891
H       -0.80867030       8.61153885      -5.76931718
H       -2.38350647       4.65225864      -5.49611611
C       -0.88130120      -0.88130120      -0.88130120
C       -1.43240431      -0.36147674      -2.04774923
C       -2.20480622      -1.18422611      -2.87142010
C       -2.44056942      -2.52816066      -2.53557806
C       -1.92968616      -3.01279240      -1.32497530
C       -1.12998497      -2.20117673      -0.51311935
C       -3.20536732      -3.37329748      -3.46159350
N       -2.78297286      -4.55776019      -4.03907570
N       -3.69310996      -5.08192790      -4.89532168
C       -4.75022706      -4.24592892      -4.86568627
C       -5.96767725      -4.56356190      -5.64539366
C       -6.94158428      -3.60332421      -5.96376381
C       -8.11299253      -3.95175232      -6.65092611
C       -8.31287862      -5.26626148      -7.05715395
Br      -9.89281493      -5.73695648      -7.98061246
C       -7.34984695      -6.23242525      -6.78891229
C       -6.18892017      -5.88137831      -6.08768972
C       -4.47917497      -3.16729638      -3.97060780
Cl      -5.52141429      -1.89330579      -3.51316741
C       -1.67214041      -5.41891528      -3.62465824
C       -0.54467986      -5.62543214      -4.61276391
C       -0.35370517      -6.91824925      -5.14452332
C        0.77919349      -7.22549377      -5.90374186
C        1.72450471      -6.24245493      -6.15061324
F        2.83022888      -6.54385211      -6.84560592
C        1.55275572      -4.95576004      -5.66885591
C        0.42469119      -4.64856391      -4.90176701
Cl       0.34796101      -3.04629572      -4.28265797
H       -1.25756945       0.67161446      -2.33557667
H       -2.60316458      -0.76968819      -3.79582257
H       -2.13555702      -4.02815271      -0.99695577
H       -0.70634612      -2.60875941       0.40083110
H       -6.82076351      -2.55865545      -5.69933746
H       -8.85625777      -3.18683161      -6.86291512
H       -7.48904342      -7.26011841      -7.11341151
H       -5.45220620      -6.65619277      -5.88239326
H       -2.13758776      -6.38399941      -3.37780085
H       -1.24980087      -5.06419147      -2.68598803
H       -1.06950611      -7.71250343      -4.93919877
H        0.94088111      -8.23063762      -6.28242923
H        2.31436317      -4.20890047      -5.87033097
C       -0.88130120       0.88130120       0.88130120
C       -1.16473662       2.18586444       0.49102922
C       -2.00487935       2.97458138       1.28099170
C       -2.56241930       2.47270412       2.46918472
C       -2.21252422       1.17903225       2.87589739
C       -1.39677721       0.37545586       2.07204797
C       -3.48992421       3.31476354       3.23557055
N       -4.79181917       3.00252087       3.58546871
N       -5.41589567       4.00637272       4.24809115
C       -4.50430242       4.99258217       4.36495765
C       -4.84020123       6.22716575       5.10926584
C       -4.11550188       7.42200844       4.97116197
C       -4.42294491       8.55497256       5.73775349
C       -5.48380979       8.51693957       6.63554469
Br      -5.89665414      10.04261180       7.67111793
C       -6.24318830       7.35994272       6.76805348
C       -5.92089669       6.22598852       6.01110299
C       -3.28308453       4.58778460       3.74621003
Cl      -1.79966005       5.43357432       3.69465312
C       -5.43212052       1.68452697       3.59906644
C       -6.62023460       1.47780750       2.68483380
C       -7.88355018       1.25916028       3.27376728
C       -8.98103675       0.86751100       2.50149439
C       -8.83132082       0.70385912       1.13338353
F       -9.87181745       0.29141240       0.39599930
C       -7.61274401       0.93950306       0.51961316
C       -6.51148492       1.32273420       1.29142060
Cl      -5.02649041       1.50946744       0.44503483
H       -0.75442367       2.59519742      -0.42808943
H       -2.24061370       3.98289704       0.94516460
H       -2.57342493       0.77101808       3.81622249
H       -1.17215971      -0.64118863       2.38330334
H       -3.29992246       7.51607415       4.26275981
H       -3.82785957       9.45754389       5.62060103
H       -7.08301519       7.32292008       7.45663806
H       -6.52478675       5.32894697       6.13705852
H       -5.72999957       1.52413400       4.64525445
H       -4.69829025       0.90658445       3.39510567
H       -8.01645066       1.35460950       4.35014815
H       -9.94374291       0.66601670       2.96242613
H       -7.52301922       0.79428998      -0.55244092
C        0.88130120      -0.88130120       0.88130120
C        1.12481930      -2.20101306       0.51579792
C        1.96496311      -2.99092941       1.30455990
C        2.56228519      -2.47492938       2.46709356
C        2.25248314      -1.16413163       2.85083909
C        1.43673639      -0.36027088       2.04727378
C        3.48793475      -3.32079546       3.23152809
N        4.80474702      -3.03166362       3.54339811
N        5.42088391      -4.03440438       4.21507125
C        4.48958182      -4.99556089       4.37669953
C        4.81426992      -6.22011486       5.14224803
C        4.05879915      -7.40020148       5.04967166
C        4.35795050      -8.52199301       5.83572745
C        5.44055785      -8.48837743       6.70735877
Br       5.84231512      -9.99890042       7.76916833
C        6.22967181      -7.34707451       6.79443816
C        5.91593357      -6.22371381       6.01834082
C        3.26370829      -4.57625202       3.77711885
Cl       1.76014659      -5.38733644       3.78040445
C        5.47576582      -1.72938315       3.51056496
C        6.64620079      -1.57249065       2.56418446
C        7.92798170      -1.37040362       3.11809242
C        9.01554541      -1.02320747       2.31128926
C        8.83704922      -0.88798933       0.94352491
F        9.86897343      -0.51783198       0.17242375
C        7.59899228      -1.10871180       0.36415615
C        6.50784344      -1.44741524       1.17038105
Cl       4.99910168      -1.61831708       0.36357391
H        0.68322896      -2.62175974      -0.38345705
H        2.16901899      -4.01214916       0.98750719
H        2.64516461      -0.74302788       3.77247301
H        1.24339851       0.66843422       2.33931013
H        3.22455739      -7.49125941       4.36293962
H        3.73934085      -9.41257869       5.75408495
H        7.08634326      -7.31406943       7.46216064
H        6.54342431      -5.33865977       6.10870814
H        5.80221249      -1.55178719       4.54538834
H        4.75562239      -0.93910302       3.30525495
H        8.08429409      -1.44386170       4.19305253
H        9.99342660      -0.83406911       2.74469003
H        7.48709589      -0.98644806      -0.70867566
