186
Properties=species:S:1:pos:R:3 pbc="F F F"
C        1.79120522       1.79120522      -1.79120522
C        2.24874941       1.30945982      -3.01313312
C        3.02125502       2.13495755      -3.83395193
C        3.35034249       3.44317514      -3.44050258
C        2.93326884       3.88518215      -2.17871493
C        2.13354431       3.07291483      -1.36753398
C        4.11105339       4.29719137      -4.36172562
N        3.72604864       5.53335444      -4.85011774
N        4.61722895       6.05564564      -5.72719702
C        5.62540878       5.16390000      -5.80224554
C        6.81537858       5.45949558      -6.63147072
C        7.71493393       4.46803929      -7.05541114
C        8.86570051       4.79156471      -7.78811781
C        9.11761528       6.11436286      -8.13402798
Br      10.66993321       6.55127843      -9.11888431
C        8.22655311       7.11398169      -7.76036176
C        7.08684090       6.78648839      -7.01437099
C        5.34207205       4.05240751      -4.95231167
Cl       6.33354236       2.70058811      -4.62346909
C        2.68952036       6.42792647      -4.32797917
C        1.52425918       6.75011228      -5.23821651
C        1.37855126       8.07931982      -5.68831873
C        0.22582627       8.48926515      -6.36466279
C       -0.78546392       7.57380896      -6.60993050
F       -1.90798852       7.97283481      -7.22409493
C       -0.66125451       6.25456433      -6.20826248
C        0.48707526       5.84448072      -5.52379582
Cl       0.50605127       4.20793753      -4.99671595
H        2.00056759       0.30516057      -3.34551557
H        3.34543921       1.75266059      -4.80028761
H        3.21354127       4.86786782      -1.80896849
H        1.78320314       3.45022302      -0.41056034
H        7.54952117       3.41805198      -6.84089535
H        9.55206549       4.00116270      -8.08248837
H        8.40610801       8.14946058      -8.03671682
H        6.40720877       7.58678198      -6.72651355
H        3.22138857       7.35118104      -4.05653049
H        2.29865792       6.04377694      -3.38725757
H        2.14812024       8.82120721      -5.48159294
H        0.10123372       9.52144288      -6.67922121
H       -1.47360244       5.56216266      -6.40602013
C       -1.79120522      -1.79120522      -1.79120522
C       -2.36370322      -1.26378275      -2.94385638
C       -3.13612505      -2.08587653      -3.76816293
C       -3.35058246      -3.43685069      -3.44658705
C       -2.81817751      -3.93015817      -2.24883024
C       -2.01847133      -3.11869792      -1.43682386
C       -4.11642781      -4.27993857      -4.37360400
N       -3.68652948      -5.45151452      -4.97147682
N       -4.60085160      -5.97642515      -5.82279485
C       -5.66797649      -5.15445631      -5.76912153
C       -6.89119136      -5.47776280      -6.53739073
C       -7.88113968      -4.52611616      -6.83112853
C       -9.05674748      -4.88079263      -7.50784292
C       -9.24519647      -6.19251589      -7.92829376
Br     -10.83074455      -6.67168057      -8.83767082
C       -8.26668808      -7.14959369      -7.68461480
C       -7.10141329      -6.79261043      -6.99367655
C       -5.39914164      -4.08383489      -4.86381470
Cl      -6.45145067      -2.82915754      -4.37699136
C       -2.55970069      -6.30355620      -4.58216912
C       -1.44245237      -6.48314064      -5.58699495
C       -1.24198326      -7.76659083      -6.13761572
C       -0.11509813      -8.04970767      -6.91494842
C        0.81448829      -7.05161918      -7.16114465
F        1.91495095      -7.33004828      -7.87384389
C        0.63267955      -5.77341286      -6.66083899
C       -0.48927096      -5.49038197      -5.87569888
Cl      -0.57830477      -3.89717258      -5.23522740
H       -2.20562462      -0.22498737      -3.22063174
H       -3.55147750      -1.66482666      -4.68208325
H       -3.00699695      -4.95213007      -1.93125056
H       -1.57806398      -3.53233833      -0.53358418
H       -7.77014918      -3.48341021      -6.55490911
H       -9.81226401      -4.12282491      -7.70062764
H       -8.39703404      -8.17480317      -8.02044820
H       -6.35240762      -7.56046957      -6.80762711
H       -3.00972769      -7.27755511      -4.34181729
H       -2.12990323      -5.95534206      -3.64444714
H       -1.94501198      -8.57246499      -5.93344341
H        0.05441354      -9.04783877      -7.30847258
H        1.38215515      -5.01438840      -6.86234710
C       -1.79120522       1.79120522       1.79120522
C       -2.08451630       3.09179912       1.39502693
C       -2.92465006       3.88022473       2.18528971
C       -3.47234071       3.38206666       3.37961283
C       -3.11254038       2.09284568       3.79177987
C       -2.29679537       1.28933837       2.98785938
C       -4.40028213       4.22318798       4.14650027
N       -5.69827764       3.90544002       4.50580317
N       -6.32434836       4.90950410       5.16621915
C       -5.41786730       5.90165581       5.27203121
C       -5.75664335       7.13859418       6.01110735
C       -5.03974883       8.33679772       5.86183781
C       -5.34934719       9.47241546       6.62362039
C       -6.40474096       9.43346732       7.52779785
Br      -6.82046880      10.96273879       8.55688836
C       -7.15656699       8.27287429       7.67145529
C       -6.83205879       7.13640904       6.91923245
C       -4.19791938       5.50034921       4.64852263
Cl      -2.71978433       6.35442261       4.58339263
C       -6.33078072       2.58385233       4.53079296
C       -7.52295566       2.36490163       3.62473069
C       -8.78153177       2.14236601       4.22229202
C       -9.88117793       1.73984710       3.45872919
C       -9.73845519       1.56907979       2.09074056
F      -10.78078929       1.14629882       1.36185311
C       -8.52485981       1.80820672       1.46850577
C       -7.42139480       2.20232696       2.23163003
Cl      -5.94245576       2.39273323       1.37551575
H       -1.68194478       3.49813267       0.47116628
H       -3.16821535       4.88517605       1.84499602
H       -3.46558591       1.68824165       4.73655001
H       -2.06444059       0.27585045       3.30369546
H       -4.22885978       8.43145854       5.14815018
H       -4.76023365      10.37772731       6.49775561
H       -7.99215092       8.23499807       8.36513641
H       -7.42995793       6.23662706       7.05391931
H       -6.62163824       2.42784532       5.57961653
H       -5.59361613       1.80900595       4.32707036
H       -8.90873522       2.24332680       5.29885836
H      -10.83999824       1.53546172       3.92643785
H       -8.44051482       1.65725833       0.39680720
C        1.79120522      -1.79120522       1.79120522
C        2.04728566      -3.10630528       1.41775141
C        2.88743525      -3.89584037       2.20688888
C        3.47224251      -3.38412674       3.37765096
C        3.14981307      -2.07856841       3.76878444
C        2.33406480      -1.27479805       2.96513027
C        4.39849178      -4.22879224       4.14268635
N        5.71075614      -3.93223804       4.46652664
N        6.32937067      -4.93537247       5.13532847
C        5.40410526      -5.90459312       5.28285594
C        5.73224863      -7.13239239       6.04170386
C        4.98632713      -8.31732646       5.93473078
C        5.28801493      -9.44271174       6.71465637
C        6.36384432      -9.40758112       7.59458069
Br       6.76899210     -10.92297617       8.64812767
C        7.14373783      -8.26113791       7.69602083
C        6.82737833      -7.13436621       6.92595573
C        4.17961389      -5.48992073       4.67725660
Cl       2.68217364      -6.31213970       4.66328622
C        6.37224744      -2.62480607       4.44837249
C        7.54846604      -2.45216507       3.51195686
C        8.82455591      -2.24471986       4.07691404
C        9.91544990      -1.88344386       3.28086046
C        9.74610040      -1.73933415       1.91284098
F       10.78092146      -1.35577787       1.15224189
C        8.51406026      -1.96489908       1.32261296
C        7.41952215      -2.31770511       2.11812453
Cl       5.91812719      -2.49376041       1.29881715
H        1.61553628      -3.52358333       0.51212412
H        3.10146513      -4.91311978       1.88380250
H        3.53248761      -1.66146344       4.69642652
H        2.13088197      -0.24976721       3.26333732
H        4.15790712      -8.40943564       5.24112573
H        4.67670196     -10.33722727       6.62178733
H        7.99516122      -8.22676986       8.37035431
H        7.44754852      -6.24538133       7.02757446
H        6.68967119      -2.45253281       5.48689609
H        5.64776022      -1.83837795       4.24355427
H        8.97343354      -2.32504895       5.15243790
H       10.88864773      -1.69030051       3.72294957
H        8.40921558      -1.83545341       0.24991136
C       -0.00445707       0.01189536      -1.78238275
H       -0.66409135       0.67374010      -2.43557963
H        0.65740317      -0.63156657      -2.45157240
C       -0.90989263      -0.90692880      -0.91072765
C        0.90977584       0.90977584      -0.90977584
C       -0.00465871       1.77757030       0.00794375
H       -0.66225468       2.44313916      -0.64384735
H        0.64322798       2.43503045       0.67728295
C       -1.78241447       0.00034974      -0.00472694
H       -2.45427497      -0.65498947       0.64260836
H       -2.43311707       0.67328779      -0.65473579
C       -0.91132561       0.90220522       0.91563759
C       -0.01476271      -0.02253852       1.78660255
H       -0.67934791      -0.69751639       2.42135241
H        0.63392994       0.61504881       2.47327442
C        0.01484550      -1.77751727      -0.01636693
H        0.67870853      -2.42144646      -0.68295456
H       -0.62264859      -2.45592969       0.64226336
C        1.78714474       0.01002794       0.00389507
H        2.44202412       0.67113390       0.66197326
H        2.45385902      -0.65136977      -0.64189061
C        0.91606151      -0.90478549       0.90901405
