198
Properties=species:S:1:pos:R:3 pbc="F F F"
C        1.79269956       1.79269956      -1.79269956
C        2.38753844       1.25205309      -2.93107924
C        3.19158706       2.05882127      -3.73425473
C        3.39785767       3.39794763      -3.39727559
C        2.79517402       3.94378849      -2.25640595
C        1.98522178       3.13147330      -1.45508991
C        2.95619492       5.36294797      -1.94628792
N        3.60381669       5.86921010      -0.84335839
N        3.50623030       7.21261994      -0.73577286
C        2.92125019       7.61298058      -1.87870314
C        2.74640889       9.04612365      -2.14802247
C        3.70040837       9.96245408      -1.67164271
C        3.57384693      11.33093709      -1.92552683
C        2.49139739      11.80292914      -2.66287140
C        1.53440403      10.90449180      -3.12635868
Br       0.05973554      11.54350495      -4.12595470
C        1.64859174       9.53740827      -2.86441003
C        2.57522002       6.47999165      -2.67148171
Cl       1.84518756       6.47468768      -4.21246554
C        4.34788909       5.14780194       0.17458664
N        5.78051311       5.21008354      -0.06726451
N        6.35337788       4.24031429      -0.81685753
C        7.64615565       4.58524392      -0.87265700
C        8.60413461       3.77011231      -1.65877295
C        7.90155267       5.75676271      -0.12623910
Cl       9.40398106       6.52330744       0.05300127
C        6.68710373       6.13142118       0.40827153
C        6.32546726       7.28143757       1.27568400
H        2.22828870       0.21132611      -3.20306720
H        3.65414006       1.64785240      -4.62975751
H        4.02606574       4.01444949      -4.03844880
H        1.48817667       3.54415700      -0.58191235
H        4.55693854       9.61049631      -1.09787445
H        4.32306040      12.02375090      -1.54951608
H        2.40099047      12.86619766      -2.86536877
H        0.86774173       8.86870395      -3.21445065
H        4.04534979       4.09776325       0.19553103
H        4.12177299       5.58807650       1.15036633
H        9.51106810       3.56992011      -1.07869981
H        8.88817850       4.29882552      -2.57397547
H        8.17089993       2.80540246      -1.94340859
H        5.67558121       6.97107761       2.09908969
H        5.81516967       8.05561959       0.69624468
H        7.21573669       7.73486788       1.72363307
C       -1.79269956      -1.79269956      -1.79269956
C       -3.01151702      -1.30198929      -2.25716446
C       -3.81428617      -2.10850522      -3.06187167
C       -3.39753789      -3.39811047      -3.39743253
C       -2.16952648      -3.88985324      -2.93598874
C       -1.36463689      -3.07531958      -2.13182852
C       -1.70492755      -5.21311015      -3.34739311
N       -1.51830934      -6.28822330      -2.50985253
N       -0.96980216      -7.35790659      -3.12691434
C       -0.94654278      -7.03429039      -4.43210075
C       -0.49688962      -8.02109145      -5.42257394
C       -0.74514396      -9.38727865      -5.20208254
C       -0.34676305     -10.35083199      -6.13271582
C        0.30398592      -9.96108806      -7.30009579
C        0.56666207      -8.61184454      -7.52007204
Br       1.45443546      -8.07916855      -9.10446210
C        0.18275563      -7.64571134      -6.58745432
C       -1.41519667      -5.70008310      -4.61141362
Cl      -1.59992230      -4.85280670      -6.07961178
C       -1.83213050      -6.39358281      -1.09539108
N       -3.09156913      -7.08758822      -0.87870381
N       -4.23042815      -6.35947740      -0.82064415
C       -5.19610860      -7.26926606      -0.63868190
C       -6.61656640      -6.84793731      -0.56851616
C       -4.66556177      -8.57479878      -0.54419393
Cl      -5.55226908     -10.00308960      -0.31892855
C       -3.30039575      -8.43378190      -0.67607573
C       -2.21731922      -9.44991287      -0.66398873
H       -3.34131968      -0.29715400      -2.00420833
H       -4.76428854      -1.73136999      -3.43609144
H       -4.03587098      -4.01284917      -4.03024388
H       -0.39743498      -3.42963244      -1.78717860
H       -1.25827088      -9.71007129      -4.29696714
H       -0.54907682     -11.40267280      -5.94457776
H        0.60448418     -10.71209417      -8.02494692
H        0.43111419      -6.60551757      -6.77649294
H       -1.90213235      -5.40000402      -0.64544565
H       -1.02381361      -6.93781917      -0.59785038
H       -7.12028904      -7.32057138       0.28117240
H       -7.14145450      -7.13434121      -1.48518379
H       -6.70783810      -5.76318608      -0.44868680
H       -1.37534116      -9.12802308      -0.04420489
H       -1.85610242      -9.64013047      -1.67831168
H       -2.57158667     -10.40136353      -0.25402131
C       -1.79269956       1.79269956       1.79269956
C       -1.90777868       3.15251286       1.51037922
C       -2.71323966       3.95503648       2.31638693
C       -3.39756462       3.39741085       3.39810542
C       -3.28727241       2.02927742       3.67881862
C       -2.48093135       1.22629463       2.86455901
C       -4.06040507       1.43663855       4.76838718
N       -3.53156742       0.87670511       5.90811264
N       -4.46034168       0.29540174       6.69887967
C       -5.64264416       0.62264087       6.14764888
C       -6.89275454       0.23427225       6.81352822
C       -6.94123766       0.17583452       8.21743297
C       -8.11957102      -0.17255693       8.88329676
C       -9.26861011      -0.46515830       8.15374611
C       -9.22601940      -0.42371453       6.76294964
Br     -10.78551568      -0.82454046       5.76821998
C       -8.04782775      -0.08916412       6.09174640
C       -5.43218845       1.35284491       4.94166002
Cl      -6.61627543       2.01036489       3.90570046
C       -2.14337942       0.84290712       6.33481785
N       -1.86276452       1.87550551       7.31959112
N       -1.43884665       3.08516461       6.88653843
C       -1.29273198       3.80508641       8.00623817
C       -0.87468580       5.22630822       7.93202585
C       -1.58924272       3.03969243       9.15561933
Cl      -1.53153060       3.58053656      10.76222007
C       -1.93103222       1.78689830       8.69232285
C       -2.34188168       0.56294413       9.42639501
H       -1.38179545       3.59376705       0.66711950
H       -2.81581088       5.01668923       2.09924986
H       -4.02534803       4.03878006       4.01483594
H       -2.40470767       0.15888650       3.05065185
H       -6.05338643       0.40718734       8.80473553
H       -8.13727069      -0.21093671       9.96999340
H      -10.18473337      -0.72722599       8.67504953
H       -8.04191493      -0.09679658       5.00577797
H       -1.47819516       0.98934191       5.48004495
H       -1.93430882      -0.14073993       6.76591427
H       -0.07503627       5.43391028       8.65074147
H       -1.72169187       5.88167496       8.15761267
H       -0.50154808       5.48320604       6.93495686
H       -1.82869857      -0.32355694       9.04242750
H       -3.42124527       0.40867366       9.34462565
H       -2.09722586       0.63882102      10.49092462
C        1.79269956      -1.79269956       1.79269956
C        2.32903858      -2.96906716       1.27256503
C        3.13358776      -3.77191760       2.07915770
C        3.39740910      -3.39756688       3.39810491
C        2.86364752      -2.21194147       3.91977946
C        2.05988391      -1.40660673       3.10529434
C        3.19972969      -1.78814432       5.27755681
N        2.31129003      -1.68268340       6.32241174
N        2.85951467      -1.15572907       7.43937935
C        4.17473025      -1.06473372       7.17346994
C        5.10337602      -0.61748423       8.21969476
C        4.83759438      -0.93319089       9.56371989
C        5.70967245      -0.53859081      10.58204759
C        6.86304968       0.17593823      10.27008647
C        7.12699736       0.50529057       8.94354772
Br       8.69233919       1.47977894       8.51663495
C        6.25242188       0.12516839       7.92315654
C        4.42894086      -1.46773534       5.83001718
Cl       5.93743467      -1.55509261       5.03981351
C        0.90850364      -2.05883904       6.35376171
N        0.71777095      -3.35484554       6.98524467
N        0.73886845      -4.46273839       6.20894286
C        0.56125364      -5.47336325       7.06943968
C        0.56972849      -6.87605646       6.58723492
C        0.39023641      -5.00384498       8.39047310
Cl       0.14460417      -5.95973864       9.76994441
C        0.46894889      -3.62959714       8.31170735
C        0.36834699      -2.59267726       9.37019658
H        2.13218401      -3.26547447       0.24502352
H        3.56358724      -4.68855958       1.67960315
H        4.03120373      -4.03511235       4.01264794
H        1.65960307      -0.47059359       3.48404936
H        3.94285462      -1.49664069       9.82581400
H        5.48717885      -0.79357520      11.61557333
H        7.54269359       0.47348695      11.06335027
H        6.47335226       0.42565155       6.90319562
H        0.50336467      -2.10451957       5.33969778
H        0.35460602      -1.29591007       6.90896707
H       -0.27626996      -7.43428064       7.00167734
H        1.49553868      -7.37451671       6.89092411
H        0.49879539      -6.92542517       5.49549042
H       -0.27329007      -1.76391494       9.05694426
H        1.35747185      -2.19844013       9.61863260
H       -0.06489980      -3.00417683      10.28769448
C       -0.00445707       0.01189536      -1.78238275
H       -0.66409135       0.67374010      -2.43557963
H        0.65740317      -0.63156657      -2.45157240
C       -0.90989263      -0.90692880      -0.91072765
C        0.90977584       0.90977584      -0.90977584
C       -0.00465871       1.77757030       0.00794375
H       -0.66225468       2.44313916      -0.64384735
H        0.64322798       2.43503045       0.67728295
C       -1.78241447       0.00034974      -0.00472694
H       -2.45427497      -0.65498947       0.64260836
H       -2.43311707       0.67328779      -0.65473579
C       -0.91132561       0.90220522       0.91563759
C       -0.01476271      -0.02253852       1.78660255
H       -0.67934791      -0.69751639       2.42135241
H        0.63392994       0.61504881       2.47327442
C        0.01484550      -1.77751727      -0.01636693
H        0.67870853      -2.42144646      -0.68295456
H       -0.62264859      -2.45592969       0.64226336
C        1.78714474       0.01002794       0.00389507
H        2.44202412       0.67113390       0.66197326
H        2.45385902      -0.65136977      -0.64189061
C        0.91606151      -0.90478549       0.90901405
