198
Properties=species:S:1:pos:R:3 pbc="F F F"
C        1.79157501       1.79157501      -1.79157501
C        1.62800946       3.17379212      -1.76771533
C        2.43604491       3.97743670      -2.57533710
C        3.40690617       3.40734695      -3.41571580
C        3.56653583       2.01552740      -3.41818055
C        2.75742720       1.20863603      -2.61005473
C        4.24085254       4.28044068      -4.24155609
N        4.74434992       5.40391031      -3.71372345
N        5.37082967       6.02848171      -4.73522740
C        5.98892141       7.31182101      -4.44394589
N        4.99534288       8.36385378      -4.26733907
N        4.64128297       9.11196837      -5.33967548
C        3.71281143       9.95425323      -4.86688419
C        3.04249208      10.92165879      -5.76999406
C        3.51566633       9.77858034      -3.47974129
Cl       2.43969826      10.65556666      -2.50310744
C        4.36737270       8.76337997      -3.10513889
C        4.59144663       8.13574619      -1.77762515
C        5.40924300       5.27582347      -5.89494222
C        6.12039737       5.62342073      -7.13293605
C        6.94503822       4.67246267      -7.75636738
C        7.62003300       4.97054856      -8.94500884
C        7.49075643       6.23401383      -9.51260474
Br       8.41380121       6.64840132     -11.10824770
C        6.67713779       7.19034772      -8.91328362
C        5.98060807       6.87784986      -7.74019386
C        4.63649059       4.15788080      -5.60133625
Cl       4.19891059       2.89828388      -6.66481814
H        0.88151035       3.63654759      -1.12789488
H        2.30621918       5.05817712      -2.54841469
H        4.32820713       1.54188651      -4.03238580
H        2.89274186       0.13017103      -2.62388410
H        6.67420995       7.60285382      -5.24028936
H        6.56988404       7.20995705      -3.52124802
H        3.33817545      11.94508936      -5.51802721
H        1.95382541      10.84422575      -5.67761757
H        3.30212522      10.74089739      -6.81790497
H        4.05052758       7.18855593      -1.70246582
H        4.23404233       8.78494078      -0.97106686
H        5.65367514       7.95293024      -1.59262347
H        7.06670429       3.67936476      -7.32855026
H        8.23748995       4.21008378      -9.41660108
H        6.56443062       8.17866201      -9.35298038
H        5.31730622       7.63171893      -7.32438735
C       -1.79157501      -1.79157501      -1.79157501
C       -2.91016652      -1.24499712      -2.41435328
C       -3.71455088      -2.05410738      -3.22016044
C       -3.41198532      -3.41364510      -3.40433850
C       -2.27564925      -3.94445768      -2.78013686
C       -1.46880027      -3.13541063      -1.97190706
C       -4.27214421      -4.22879889      -4.26190620
N       -4.70545044      -3.72958224      -5.42695099
N       -5.54275568      -4.66513547      -5.92664763
C       -6.19155952      -4.36133305      -7.19179573
N       -7.23445707      -3.35448228      -7.03759638
N       -8.50771418      -3.76338339      -6.82182925
C       -9.20690524      -2.62701591      -6.70002770
C      -10.66112929      -2.66397797      -6.40903767
C       -8.38693312      -1.49379122      -6.89326361
Cl      -8.88937504       0.12633918      -6.83533651
C       -7.12170150      -1.98223602      -7.13195404
C       -5.84675534      -1.26585264      -7.39220999
C       -5.56610978      -5.83098973      -5.18290916
C       -6.27653329      -7.06928154      -5.53093933
C       -5.60650180      -8.30207071      -5.46529576
C       -6.26324881      -9.49815154      -5.77419006
C       -7.59608615      -9.46966322      -6.17162561
Br      -8.48343612     -11.07985848      -6.60715563
C       -8.27976518      -8.25991395      -6.24109000
C       -7.62697857      -7.06899071      -5.90268251
C       -4.78133497      -5.54228514      -4.07208753
Cl      -4.50864294      -6.53854441      -2.71482525
H       -3.16528556      -0.19683039      -2.28383687
H       -4.58533834      -1.61924841      -3.70822424
H       -1.99343235      -4.98424213      -2.92480496
H       -0.59100502      -3.56227130      -1.49352066
H       -6.62867146      -5.25885479      -7.62982688
H       -5.43113737      -3.98549974      -7.88445198
H      -11.23074652      -2.30033196      -7.27021354
H      -10.89759451      -2.03136299      -5.54671123
H      -11.00054743      -3.67936160      -6.18101855
H       -5.23892205      -1.21797336      -6.48465393
H       -6.03397350      -0.23725909      -7.71881738
H       -5.26640008      -1.75051032      -8.18231847
H       -4.56233898      -8.34954637      -5.16273395
H       -5.72631749     -10.44037238      -5.69748495
H       -9.32372549      -8.22805292      -6.54429461
H       -8.20333776      -6.14779104      -5.92228370
C       -1.79157501       1.79157501       1.79157501
C       -2.86880694       1.22966653       2.47104345
C       -3.67330816       2.03882085       3.27668970
C       -3.41230085       3.41337650       3.40429157
C       -2.31684345       3.96008647       2.72331388
C       -1.50996434       3.15099385       1.91515977
C       -4.27097769       4.22849288       4.26337874
N       -4.64711063       3.75588946       5.45898358
N       -5.49921738       4.67955445       5.95576695
C       -6.09403575       4.39836500       7.25228755
N       -7.10579251       3.35218175       7.16856147
N       -8.39908069       3.71017623       6.98366991
C       -9.06192730       2.54733934       6.92468221
C      -10.52553433       2.52511163       6.68349896
C       -8.19689237       1.44981447       7.12728111
Cl      -8.64419990      -0.18735957       7.14153204
C       -6.94213899       1.98863926       7.30511331
C       -5.63494259       1.32513249       7.54474290
C       -5.58825807       5.81731565       5.17443496
C       -6.32929938       7.04234957       5.50510520
C       -5.70525619       8.29397586       5.37463622
C       -6.39253087       9.47729236       5.66576717
C       -7.70941559       9.41778725       6.11017215
Br      -8.63719553      11.01137690       6.52187780
C       -8.34776494       8.18884716       6.24415704
C       -7.66562027       7.00951958       5.92351194
C       -4.83176757       5.51665802       4.04728206
Cl      -4.63986880       6.47360479       2.64853901
H       -3.09147318       0.16958550       2.38489413
H       -4.51146239       1.59215189       3.80919672
H       -2.06634209       5.01320161       2.82293575
H       -0.66420559       3.59024750       1.39234389
H       -6.54717155       5.29537720       7.67480438
H       -5.29806387       4.07274923       7.93027600
H      -11.05278407       2.17273032       7.57577762
H      -10.76871723       1.85520328       5.85174822
H      -10.90764338       3.51991313       6.43337106
H       -5.05673430       1.26614295       6.61867209
H       -5.77506782       0.30282975       7.91215239
H       -5.04554814       1.85632646       8.29735425
H       -4.67417181       8.36602758       5.03441992
H       -5.89167165      10.43382166       5.53868150
H       -9.37916988       8.13242093       6.58448221
H       -8.20851809       6.07066697       5.99422744
C        1.79157501      -1.79157501       1.79157501
C        1.50236154      -3.14720084       1.91995453
C        2.31075223      -3.95092247       2.72714401
C        3.40774122      -3.40654781       3.41567989
C        3.69179650      -2.04294664       3.26550064
C        2.88258533      -1.23594651       2.45758612
C        4.23734921      -4.28001910       4.24548100
N        4.58247282      -5.49096827       3.78854258
N        5.24835242      -6.07990232       4.80628405
C        5.71609470      -7.43930390       4.58928970
N        4.61900946      -8.39909490       4.60843137
N        4.30711527      -9.00849481       5.77731674
C        3.26406744      -9.79363388       5.47624753
C        2.60217639     -10.60420963       6.52775890
C        2.94681240      -9.72517517       4.10200038
Cl       1.70443629     -10.57553129       3.31840479
C        3.84524682      -8.83754669       3.55309806
C        3.99211602      -8.35766182       2.15504013
C        5.46951736      -5.23319136       5.87729996
C        6.26580357      -5.53652480       7.07442579
C        7.23072782      -4.61978797       7.52335248
C        7.99074946      -4.87492159       8.66991936
C        7.80496736      -6.06289033       9.36951731
Br       8.84071508      -6.42117034      10.90856481
C        6.85287465      -6.98387274       8.94402174
C        6.07435802      -6.71091532       7.81337845
C        4.77550289      -4.07512348       5.54508127
Cl       4.56117945      -2.68747682       6.51335633
H        0.65730958      -3.58938991       1.39925332
H        2.08188036      -5.01142540       2.81950524
H        4.55032224      -1.59378927       3.75836794
H        3.11539092      -0.17942526       2.35198080
H        6.44799673      -7.72387900       5.34547740
H        6.20936888      -7.47933546       3.61238476
H        2.77778978     -11.67048830       6.35301394
H        1.52117233     -10.42770556       6.52679084
H        2.97983860     -10.35628216       7.52480682
H        3.53411867      -7.37210711       2.03532356
H        3.49925386      -9.03829211       1.45250399
H        5.04286612      -8.29868140       1.85768134
H        7.39844571      -3.68636903       6.98980457
H        8.71809171      -4.14008568       9.00599742
H        6.69564610      -7.91236874       9.48805818
H        5.30772063      -7.42962739       7.53606449
C       -0.00445707       0.01189536      -1.78238275
H       -0.66409135       0.67374010      -2.43557963
H        0.65740317      -0.63156657      -2.45157240
C       -0.90989263      -0.90692880      -0.91072765
C        0.90977584       0.90977584      -0.90977584
C       -0.00465871       1.77757030       0.00794375
H       -0.66225468       2.44313916      -0.64384735
H        0.64322798       2.43503045       0.67728295
C       -1.78241447       0.00034974      -0.00472694
H       -2.45427497      -0.65498947       0.64260836
H       -2.43311707       0.67328779      -0.65473579
C       -0.91132561       0.90220522       0.91563759
C       -0.01476271      -0.02253852       1.78660255
H       -0.67934791      -0.69751639       2.42135241
H        0.63392994       0.61504881       2.47327442
C        0.01484550      -1.77751727      -0.01636693
H        0.67870853      -2.42144646      -0.68295456
H       -0.62264859      -2.45592969       0.64226336
C        1.78714474       0.01002794       0.00389507
H        2.44202412       0.67113390       0.66197326
H        2.45385902      -0.65136977      -0.64189061
C        0.91606151      -0.90478549       0.90901405
