161
Properties=species:S:1:pos:R:3 pbc="F F F"
C        0.00000000       0.00000000       0.00000000
C        0.88155495       0.88155495      -0.88155495
C        1.21373014       0.46267068      -2.16768762
C        2.01380208       1.27407223      -2.97964623
C        2.49775973       2.50326272      -2.50701936
C        2.14291957       2.91140221      -1.21081281
C        1.33986914       2.10455798      -0.39922566
C        3.30738410       3.38215030      -3.35660299
N        3.14865019       4.71139352      -3.28239191
N        3.89467210       5.22340036      -4.28952303
C        3.72360608       6.60114433      -4.61793452
C        3.30558765       7.49159375      -3.61659354
C        3.15388684       8.85078711      -3.90208493
C        3.38388941       9.32646669      -5.19493939
Cl       3.17915162      11.01782750      -5.47742197
C        3.76145498       8.43517443      -6.20595079
Cl       4.02408918       8.94559611      -7.83638185
C        3.93258264       7.07507597      -5.91872339
C        4.73180635       4.26697301      -4.86045128
C        5.84940593       4.53761281      -5.77666251
C        6.78112536       5.55072397      -5.49513626
C        7.83109065       5.82425148      -6.37718603
C        7.97736473       5.06274355      -7.53264080
C        7.08179387       4.03486362      -7.81562888
C        6.01893093       3.77837219      -6.94307680
C        4.33223541       3.06745564      -4.28816716
Cl       5.00559176       1.52291412      -4.55868656
H        0.84839706      -0.48608509      -2.55291036
H        2.22975368       0.93798639      -3.99046741
H        2.48555200       3.87135450      -0.82756128
H        1.07522752       2.44378405       0.59864870
H        3.12416089       7.14501354      -2.59909282
H        2.85710314       9.53285728      -3.10830071
H        4.18720969       6.40121128      -6.73225386
H        6.70030763       6.14698818      -4.58748777
H        8.52661239       6.62785771      -6.15088416
H        7.19889493       3.42786285      -8.71029778
H        5.32645476       2.97712804      -7.19054235
C        9.06248077       5.33736059      -8.43857052
C        9.97126546       5.56735236      -9.19728665
Br      11.44069344       5.93922960     -10.42406648
C       -0.88155495      -0.88155495      -0.88155495
C       -2.05967882      -0.36697203      -1.41743760
C       -2.86342910      -1.17110079      -2.23299065
C       -2.50172731      -2.49857383      -2.50774067
C       -1.30486161      -2.99473193      -1.96554104
C       -0.49772891      -2.19183446      -1.15408941
C       -3.31337546      -3.34384957      -3.38891236
N       -2.71394030      -4.20773040      -4.22076492
N       -3.70094252      -4.70190250      -5.00475046
C       -3.32859940      -5.45875939      -6.15532614
C       -2.11160900      -6.15813774      -6.14402819
C       -1.73224142      -6.92824850      -7.24626895
C       -2.54568927      -6.97916118      -8.38044504
Cl      -2.01680619      -7.95163061      -9.70596428
C       -3.74044570      -6.25067187      -8.41146264
Cl      -4.77660420      -6.23455238      -9.79491056
C       -4.13274462      -5.49265166      -7.30098571
C       -4.96647986      -4.36091713      -4.53183365
C       -6.23903420      -4.94728633      -4.97736074
C       -6.38472656      -6.33892445      -5.10333459
C       -7.58719480      -6.89635118      -5.54898219
C       -8.66595298      -6.06688804      -5.83990806
C       -8.55159844      -4.68695207      -5.69373585
C       -7.34031409      -4.13033492      -5.26973090
C       -4.72420847      -3.45379975      -3.50984999
Cl      -5.88124666      -2.69473727      -2.51120852
H       -2.35743548       0.65928099      -1.21706783
H       -3.75978307      -0.73359398      -2.66483043
H       -0.98859535      -4.01403494      -2.18183749
H        0.42594669      -2.59680260      -0.74950696
H       -1.46190268      -6.13743308      -5.26893149
H       -0.79982738      -7.48748900      -7.21094475
H       -5.04502386      -4.90628098      -7.36937000
H       -5.56203218      -7.01046024      -4.86229117
H       -7.67015407      -7.97397093      -5.66122925
H       -9.39535345      -4.03484026      -5.90686185
H       -7.27196213      -3.04926811      -5.17289490
C       -9.90781928      -6.63915376      -6.29143884
C      -10.94788230      -7.11842629      -6.66959588
Br     -12.62957625      -7.89336945      -7.28104382
C       -0.88155495       0.88155495       0.88155495
C       -1.12603925       2.20288908       0.51516011
C       -1.94131848       3.00874308       1.31745898
C       -2.50698818       2.50331481       2.49773882
C       -2.25588372       1.16546599       2.84378488
C       -1.44533347       0.35688947       2.04142984
C       -3.39229843       3.32251612       3.33132285
N       -4.45058814       2.75975933       3.93208815
N       -5.15019934       3.78552095       4.47187520
C       -6.46334443       3.51813056       4.96120994
C       -6.76803326       2.22667562       5.41906605
C       -8.03775913       1.94156848       5.92743127
C       -9.02292843       2.93127890       5.95108817
Cl     -10.56955049       2.51071897       6.59413163
C       -8.73547972       4.20924474       5.45785574
Cl      -9.91607330       5.47118245       5.41881139
C       -7.45797911       4.50353532       4.96486756
C       -4.43354339       4.98018197       4.44550527
C       -4.77742008       6.20698619       5.17927498
C       -5.13220049       6.15705863       6.53772647
C       -5.48169318       7.32029677       7.23053822
C       -5.44597560       8.54880784       6.57796564
C       -5.06889836       8.62365877       5.23972924
C       -4.74192598       7.45570060       4.54275333
C       -3.31244259       4.69753916       3.67787645
Cl      -2.02548394       5.75498124       3.30672726
H       -0.69761926       2.61343658      -0.39583352
H       -2.14232624       4.02556312       0.99031813
H       -2.70134666       0.74093555       3.74218557
H       -1.26904051      -0.67645040       2.32777276
H       -6.01471068       1.43874913       5.41480745
H       -8.24959475       0.94361091       6.30505547
H       -7.27637554       5.49218039       4.55211891
H       -5.14795996       5.21064149       7.07618214
H       -5.77529134       7.25533773       8.27472519
H       -5.02634568       9.58241693       4.72829296
H       -4.46040831       7.53819647       3.49552037
C       -5.79782716       9.74908946       7.29149527
C       -6.09250284      10.75432531       7.88907633
Br      -6.56896849      12.37970666       8.85531436
C        0.88155495      -0.88155495       0.88155495
C        0.45135079      -2.15844172       1.23429594
C        1.26260828      -2.97053598       2.03437628
C        2.50315099      -2.50708474       2.49780608
C        2.92245779      -1.22026681       2.12240999
C        2.11571638      -0.40863490       1.31930150
C        3.38154977      -3.35750245       3.30708518
N        4.70956415      -3.30132220       3.13154927
N        5.21847673      -4.30557773       3.88354102
C        6.59001160      -4.65269742       3.69997591
C        7.48725949      -3.66730759       3.25920786
C        8.84099547      -3.97105646       3.09470694
C        9.30390572      -5.26673556       3.33465422
Cl      10.98915381      -5.57213931       3.11310796
C        8.40520874      -6.26226883       3.73510264
Cl       8.89920733      -7.89550581       4.01135401
C        7.05082414      -5.95654048       3.91901738
C        4.26549930      -4.85479605       4.73893529
C        4.53867493      -5.76076636       5.86423997
C        5.56630972      -5.48040334       6.78027253
C        5.84196177      -6.35306248       7.83750391
C        5.06849512      -7.49736291       8.00689105
C        4.02651452      -7.77857538       7.12719647
C        3.76762588      -6.91577365       6.05698038
C        3.06816738      -4.27283692       4.34685390
Cl       1.52877436      -4.51652078       5.04189731
H       -0.50631235      -2.53648085       0.88505382
H        0.91707960      -3.97454770       2.26658018
H        3.89101694      -0.84460633       2.44884452
H        2.46363931       0.58181046       1.03853402
H        7.15071997      -2.64792571       3.06962157
H        9.52887780      -3.18921397       2.78016936
H        6.37039834      -6.75873091       4.19154558
H        6.17238151      -4.58108525       6.68131684
H        6.65659633      -6.12820517       8.52055275
H        3.41030321      -8.66435088       7.26240147
H        2.95513643      -7.16178372       5.37720499
C        5.34537668      -8.39349061       9.09954459
C        5.57726500      -9.14399755      10.01464193
Br       5.95220879     -10.35750380      11.49427693
