182
Properties=species:S:1:pos:R:3 pbc="F F F"
C        1.79134339       1.79134339      -1.79134339
C        2.88743178       1.23724704      -2.44667269
C        3.68981363       2.04154484      -3.26368255
C        3.41521635       3.40853590      -3.41774345
C        2.29787987       3.94419881      -2.75539834
C        1.48854820       3.14123484      -1.94526095
C        4.22866509       4.26454870      -4.28981446
N        3.65260964       5.27129134      -4.95479398
N        4.62643261       5.87179763      -5.67774822
C        5.84024930       5.18784988      -5.56077935
C        7.10434009       5.47285674      -6.24957445
C        7.70853029       6.73635376      -6.21130065
C        8.91594415       6.96303950      -6.88304382
C        9.53831254       5.92124275      -7.56949815
C        8.96310039       4.65504031      -7.59719636
C        7.74910066       4.43585072      -6.94377511
C        5.61173675       4.22396236      -4.58763687
Cl       6.78138151       3.20247915      -3.87713971
C        4.26887712       6.99000281      -6.49572882
C        4.87409330       7.15527948      -7.75528223
C        4.52594787       8.23388968      -8.57767305
C        3.56010839       9.14201830      -8.16326728
Cl       3.13642100      10.46532647      -9.17651777
C        2.93905357       8.98951798      -6.92939029
C        3.28975162       7.92214459      -6.08956448
Cl       2.54454644       7.95357114      -4.52330284
H        3.12239080       0.18124095      -2.33983946
H        4.51399925       1.56974517      -3.79094290
H        2.04339054       4.99654869      -2.87586520
H        0.62669776       3.57928172      -1.44938920
H        7.25167394       7.55756921      -5.66380255
H        9.36642058       7.95185370      -6.85822685
H        9.44948003       3.83125156      -8.11544111
H        7.31365416       3.43843901      -6.97545280
H        5.58920097       6.43940971      -8.14884541
H        5.00759522       8.34811747      -9.54721384
H        2.19247033       9.71285620      -6.60905131
C       10.78502904       6.15306228      -8.25181601
C       11.82915412       6.34721114      -8.82325721
Br      13.51741605       6.66113343      -9.74722931
C       -1.79134339      -1.79134339      -1.79134339
C       -2.75614037      -1.20759771      -2.60761344
C       -3.55733580      -2.01341065      -3.42429457
C       -3.41427593      -3.40886811      -3.41835166
C       -2.42717624      -3.97564496      -2.59465583
C       -1.61858892      -3.17253248      -1.78392258
C       -4.22662939      -4.27060230      -4.28579656
N       -3.69889495      -5.39161591      -4.78818410
N       -4.65735268      -5.96955920      -5.54906659
C       -5.79832252      -5.16509146      -5.62546455
C       -7.01427668      -5.39959251      -6.41290210
C       -7.74855873      -6.58907287      -6.31855309
C       -8.90390527      -6.76942576      -7.08869643
C       -9.34563391      -5.75107558      -7.93234395
C       -8.64075793      -4.55505926      -8.01951986
C       -7.47794028      -4.38467368      -7.26611253
C       -5.56329749      -4.13048673      -4.72955176
Cl      -6.68142675      -2.93380735      -4.24576626
C       -4.34310279      -7.19624058      -6.21526538
C       -4.84011139      -7.43457478      -7.50996884
C       -4.53060543      -8.62162921      -8.18527597
C       -3.70903407      -9.56876735      -7.58759254
Cl      -3.33231073     -11.02524548      -8.42070903
C       -3.19525091      -9.34727663      -6.31543431
C       -3.51011613      -8.16927515      -5.62206941
Cl      -2.92424808      -8.10677262      -3.99039972
H       -2.88810161      -0.12871332      -2.62665629
H       -4.27374166      -1.52348941      -4.07745624
H       -2.27420437      -5.05419232      -2.58740774
H       -0.85837925      -3.63590492      -1.16108451
H       -7.43436180      -7.38793631      -5.65074759
H       -9.45592935      -7.70297425      -7.01759752
H       -8.98668607      -3.74777973      -8.66170690
H       -6.93924255      -3.44190823      -7.34639519
H       -5.43561439      -6.69935765      -8.04248405
H       -4.92743844      -8.79072672      -9.18476138
H       -2.56242713     -10.10055324      -5.85139747
C      -10.53942366      -5.93389226      -8.71659141
C      -11.53922258      -6.08700122      -9.37339866
Br     -13.15581288      -6.33456547     -10.43540044
C       -1.79134339       1.79134339       1.79134339
C       -1.53324028       3.15629248       1.88181875
C       -2.34704973       3.96731408       2.68067721
C       -3.41274420       3.41903890       3.40971260
C       -3.66132046       2.04093187       3.29522469
C       -2.85546439       1.22897320       2.49060640
C       -4.29411249       4.25551889       4.23339687
N       -5.58822974       3.94049554       4.34996968
N       -6.15016705       4.87928499       5.14652642
C       -5.23141367       5.87981976       5.47764510
C       -5.47296836       7.10444148       6.24936144
C       -6.04672380       7.08211601       7.52734488
C       -6.25822319       8.27573561       8.22806866
C       -5.86999331       9.49176093       7.66729920
C       -5.27750917       9.52850996       6.40931793
C       -5.08574355       8.33942035       5.70356260
C       -4.01669331       5.42346725       4.98317543
Cl      -2.48419512       6.12893977       5.24786548
C       -7.54917763       4.77679457       5.42863655
C       -8.33223097       5.94315823       5.50926582
C       -9.70608412       5.86319198       5.76823450
C      -10.31361745       4.62431162       5.92746490
Cl     -12.00099972       4.53132506       6.24594046
C       -9.56185570       3.45892733       5.83717882
C       -8.18210789       3.52588510       5.59346770
Cl      -7.35618541       2.00192072       5.66331429
H       -0.71090302       3.60350081       1.32906739
H       -2.14207948       5.03386992       2.69873791
H       -4.49734757       1.58994923       3.82850762
H       -3.07346048       0.16724318       2.41466503
H       -6.33708236       6.14306437       7.99289897
H       -6.71826225       8.24590765       9.21233122
H       -4.95528458      10.47047733       5.97041079
H       -4.62004758       8.38694927       4.72054911
H       -7.91538873       6.92988275       5.33218460
H      -10.29535437       6.77633651       5.83123565
H      -10.04501537       2.49418177       5.97518070
C       -6.07907047      10.71781977       8.39301710
C       -6.25417259      11.74464404       9.00080584
Br      -6.53729791      13.40493205       9.98354883
C        1.79134339      -1.79134339       1.79134339
C        1.57406584      -3.16577643       1.83150924
C        2.38824702      -3.97632584       2.63046816
C        3.41303749      -3.41893644       3.40952177
C        3.62111881      -2.03088887       3.34546935
C        2.81503078      -1.21897549       2.54103772
C        4.29475577      -4.25362801       4.23464447
N        5.57401043      -3.90277454       4.40190998
N        6.14069551      -4.84864790       5.18663505
C        5.24442999      -5.88700670       5.45744184
C        5.50089045      -7.12750695       6.19837389
C        6.03403027      -7.12813517       7.49401926
C        6.26166566      -8.33633382       8.16402798
C        5.92970770      -9.54530791       7.55403783
C        5.37769989      -9.56030111       6.27733606
C        5.17007775      -8.35586063       5.60278812
C        4.03162551      -5.45279095       4.93891952
Cl       2.51488829      -6.21316133       5.13295075
C        7.52639571      -4.71214838       5.51606466
C        8.34325036      -5.85582395       5.58558071
C        9.70524569      -5.74186597       5.89039895
C       10.26792845      -4.49055250       6.10691302
Cl      11.94090036      -4.35582473       6.48154015
C        9.48266316      -3.34658523       6.02871345
C        8.11389599      -3.44821361       5.73935108
Cl       7.23822214      -1.95338713       5.82981115
H        0.78375672      -3.62030553       1.23940897
H        2.21680110      -5.04872166       2.60916455
H        4.42558385      -1.57154927       3.91867131
H        3.00142504      -0.14916113       2.50478252
H        6.27994229      -6.19585218       7.99725122
H        6.69000477      -8.32363764       9.16285872
H        5.09922528     -10.49732446       5.79962296
H        4.73661109      -8.38645430       4.60448058
H        7.96361172      -6.84879064       5.36505373
H       10.32100602      -6.63797623       5.94394428
H        9.93045560      -2.37229292       6.21162931
C        6.15518419     -10.78678258       8.24794056
C        6.34402076     -11.82651761       8.82908410
Br       6.64935352     -13.50768122       9.76874405
C       -0.00445707       0.01189536      -1.78238275
H       -0.66409135       0.67374010      -2.43557963
H        0.65740317      -0.63156657      -2.45157240
C       -0.90989263      -0.90692880      -0.91072765
C        0.90977584       0.90977584      -0.90977584
C       -0.00465871       1.77757030       0.00794375
H       -0.66225468       2.44313916      -0.64384735
H        0.64322798       2.43503045       0.67728295
C       -1.78241447       0.00034974      -0.00472694
H       -2.45427497      -0.65498947       0.64260836
H       -2.43311707       0.67328779      -0.65473579
C       -0.91132561       0.90220522       0.91563759
C       -0.01476271      -0.02253852       1.78660255
H       -0.67934791      -0.69751639       2.42135241
H        0.63392994       0.61504881       2.47327442
C        0.01484550      -1.77751727      -0.01636693
H        0.67870853      -2.42144646      -0.68295456
H       -0.62264859      -2.45592969       0.64226336
C        1.78714474       0.01002794       0.00389507
H        2.44202412       0.67113390       0.66197326
H        2.45385902      -0.65136977      -0.64189061
C        0.91606151      -0.90478549       0.90901405
