161
Properties=species:S:1:pos:R:3 pbc="F F F"
C        0.00000000       0.00000000       0.00000000
C        0.88343320       0.88343320      -0.88343320
C        1.09657154       2.21382954      -0.53341795
C        1.87798508       3.02376418      -1.35508487
C        2.43686004       2.50239571      -2.52532197
C        2.24934687       1.15430996      -2.86867710
C        1.45904889       0.34931518      -2.03643906
C        2.81997412       0.60488667      -4.10416359
C        2.14666718       0.00405925      -5.15993931
Cl       0.47330614      -0.31422655      -5.26801732
C        3.10130301      -0.20973598      -6.18202496
N        4.29203083       0.27264365      -5.81007108
N        4.15092701       0.67216436      -4.52069183
C        5.33234560       1.08193959      -3.82188166
C        5.39899109       1.15123039      -2.42744552
C        6.57350926       1.58358161      -1.79671165
C        7.69823961       1.93229194      -2.54964617
Cl       9.10196449       2.46720382      -1.69847030
C        7.65588521       1.83304811      -3.94162833
Cl       9.00641957       2.23206808      -4.94040824
C        6.48208654       1.40318863      -4.57230173
C        2.93624754      -0.80182560      -7.50960053
C        2.20408883      -1.98428670      -7.69180665
C        2.06448700      -2.54312296      -8.96520504
C        2.66097220      -1.93094494     -10.06644144
C        3.40091011      -0.76367372      -9.88894509
C        3.54402509      -0.20019286      -8.62165756
H        0.65192330       2.62984377       0.36730646
H        2.04208382       4.06653078      -1.09215897
H        3.02170202       3.16214829      -3.16426848
H        1.27943834      -0.69243880      -2.29165686
H        4.57577292       0.84583435      -1.78910613
H        6.60520920       1.63764445      -0.71102956
H        6.46832049       1.33967443      -5.65994589
H        1.74761667      -2.49381319      -6.84618782
H        1.49482051      -3.46029998      -9.09623209
H        2.54964124      -2.37260081     -11.05317270
H        4.12977240       0.70767676      -8.49323117
C        4.02449342      -0.13483335     -11.02442017
C        4.54674445       0.39182046     -11.97538054
Br       5.39118019       1.24337513     -13.51300303
C       -0.88343320      -0.88343320      -0.88343320
C       -0.93254483      -0.65543509      -2.25583910
C       -1.75997380      -1.44287179      -3.05398854
C       -2.53888870      -2.44942429      -2.47626473
C       -2.47202867      -2.70302727      -1.09727800
C       -1.63853917      -1.90291878      -0.30334518
C       -3.29926323      -3.74762720      -0.48213395
C       -4.23785856      -3.60433166       0.53152448
Cl      -4.63031832      -2.17567483       1.37889624
C       -4.88479478      -4.85531069       0.66651348
N       -4.41535275      -5.71833365      -0.24105916
N       -3.39007148      -5.08668149      -0.86703024
C       -2.59947872      -5.85482263      -1.78186550
C       -1.32427509      -5.45856905      -2.19482286
C       -0.60500920      -6.23659432      -3.11219900
C       -1.14254383      -7.42633542      -3.61129847
Cl      -0.19920228      -8.32110904      -4.74732730
C       -2.40029824      -7.85118506      -3.17907836
Cl      -3.12652900      -9.31437557      -3.73799133
C       -3.12012759      -7.07321538      -2.26423393
C       -5.95630751      -5.26302068       1.57530573
C       -5.92194741      -4.92614431       2.93648293
C       -6.94820345      -5.33227753       3.79391190
C       -8.01350354      -6.08476918       3.30180401
C       -8.04555488      -6.43385962       1.95323302
C       -7.02555718      -6.03179514       1.09186253
H       -0.34108542       0.13607856      -2.70945375
H       -1.80965555      -1.26505907      -4.12605895
H       -3.19715218      -3.03375360      -3.11721302
H       -1.58574519      -2.06379953       0.77088832
H       -0.83478992      -4.57197040      -1.80395307
H        0.38305281      -5.90949871      -3.42743732
H       -4.10278140      -7.41963692      -1.94552249
H       -5.09107619      -4.35903563       3.35012052
H       -6.91250132      -5.06609606       4.84784476
H       -8.80674314      -6.39860320       3.97513321
H       -7.05691964      -6.31576779       0.04200710
C       -9.14121322      -7.21816477       1.44529775
C      -10.05882708      -7.87502033       1.01990196
Br     -11.54253109      -8.93710021       0.33207295
C       -0.88343320       0.88343320       0.88343320
C       -1.24750239       0.44336219       2.15295444
C       -2.07569492       1.23711754       2.94402166
C       -2.54118030       2.46307731       2.46032011
C       -2.15436071       2.92535240       1.19262083
C       -1.32330126       2.11743546       0.40406641
C       -2.65249088       4.20409564       0.67243787
C       -3.37633983       4.42623182      -0.49190591
Cl      -3.82253384       3.26963712      -1.66507406
C       -3.76335571       5.78699867      -0.47676239
N       -3.34993436       6.37219080       0.65262040
N       -2.59370868       5.44983567       1.30023886
C       -1.88784010       5.87711116       2.47121559
C       -0.80781940       5.16685514       3.00299247
C       -0.16962131       5.61771278       4.16646842
C       -0.59001822       6.79090120       4.79925830
Cl       0.23956163       7.27226894       6.23493131
C       -1.64450248       7.52843379       4.25762538
Cl      -2.21323629       8.99368982       4.97196979
C       -2.28374853       7.07731969       3.09650869
C       -4.54434003       6.55010166      -1.45041922
C       -4.29147891       6.44632580      -2.82619592
C       -5.03948838       7.19011407      -3.74303337
C       -6.04092630       8.04972776      -3.29418535
C       -6.28695458       8.16693195      -1.92770505
C       -5.54510043       7.42767803      -1.00728867
H       -0.90163062      -0.51629906       2.52912906
H       -2.37096157       0.89592782       3.93388417
H       -3.20832515       3.05291626       3.08687739
H       -1.02743177       2.44202136      -0.59079673
H       -0.40491771       4.27772595       2.52806974
H        0.66480365       5.04882054       4.56986633
H       -3.10901138       7.66434135       2.69458808
H       -3.50104757       5.79997003      -3.20102630
H       -4.83582199       7.10276023      -4.80782960
H       -6.61696330       8.62632789      -4.01307806
H       -5.74077025       7.53199877       0.05791132
C       -7.31555841       9.06074386      -1.46222203
C       -8.17701411       9.80931133      -1.07237999
Br      -9.56991513      11.01968162      -0.44203840
C        0.88343320      -0.88343320       0.88343320
C        1.09053289      -2.21583638       0.53744976
C        1.87198906      -3.02562617       1.35921889
C        2.43694347      -2.50207736       2.52555690
C        2.25550812      -1.15210121       2.86472461
C        1.46511182      -0.34725715       2.03243417
C        2.83255039      -0.60030608       4.09616791
C        2.16521173       0.00672834       5.15218236
Cl       0.49340402       0.33142564       5.26511852
C        3.12428427       0.22075056       6.17005828
N        4.31192550      -0.26724703       5.79557303
N        4.16474500      -0.67088217       4.50815603
C        5.34216032      -1.08741593       3.80659060
C        5.40353329      -1.16195084       2.41218287
C        6.57421247      -1.60079110       1.77879895
C        7.70038887      -1.95084592       2.52894294
Cl       9.09910962      -2.49386237       1.67466663
C        7.66340534      -1.84645468       3.92070163
Cl       9.01608783      -2.24674948       4.91605859
C        6.49343649      -1.41010894       4.55403148
C        2.96613820       0.81819204       7.49607630
C        2.23888941       2.00392917       7.67664855
C        2.10588213       2.56783157       8.94851852
C        2.70412920       1.95746542      10.04980493
C        3.43922858       0.78690685       9.87385976
C        3.57575429       0.21836919       8.60810468
H        0.64115269      -2.63347643      -0.36016852
H        2.03139586      -4.06991410       1.09946361
H        3.02171148      -3.16163477       3.16477255
H        1.29016200       0.69604638       2.28454078
H        4.57912250      -0.85588454       1.77570637
H        6.60180717      -1.65886418       0.69321186
H        6.48381644      -1.34264218       5.64148220
H        1.78120590       2.51205824       6.83084364
H        1.53998693       3.48751905       9.07828473
H        2.59793922       2.40305821      11.03533211
H        4.15777288      -0.69205960       8.48084786
C        4.06463693       0.15990384      11.00934715
C        4.58841643      -0.36521118      11.96031784
Br       5.43532358      -1.21427775      13.49795702
