174
Properties=species:S:1:pos:R:3 pbc="F F F"
C        1.79333722       1.79333722      -1.79333722
C        2.00647556       3.12373357      -1.44332197
C        2.78788910       3.93366820      -2.26498889
C        3.34676406       3.41229974      -3.43522599
C        3.15925089       2.06421399      -3.77858113
C        2.36895292       1.25921920      -2.94634308
C        3.72987814       1.51479070      -5.01406761
C        3.05657121       0.91396327      -6.06984334
Cl       1.38321016       0.59567748      -6.17792134
C        4.01120703       0.70016804      -7.09192898
N        5.20193486       1.18254767      -6.71997511
N        5.06083103       1.58206839      -5.43059586
C        6.24224962       1.99184362      -4.73178568
C        6.30889512       2.06113442      -3.33734954
C        7.48341328       2.49348563      -2.70661567
C        8.60814364       2.84219597      -3.45955019
Cl      10.01186852       3.37710785      -2.60837433
C        8.56578923       2.74295213      -4.85153236
Cl       9.91632360       3.14197211      -5.85031227
C        7.39199056       2.31309266      -5.48220576
C        3.84615156       0.10807842      -8.41950455
C        3.11399286      -1.07438268      -8.60171068
C        2.97439102      -1.63321893      -9.87510906
C        3.57087623      -1.02104091     -10.97634546
C        4.31081413       0.14623031     -10.79884912
Br       5.12942961       0.97174704     -12.28945583
C        4.45392911       0.70971117      -9.53156158
H        1.56182732       3.53974779      -0.54259757
H        2.95198784       4.97643481      -2.00206299
H        3.93160605       4.07205231      -4.07417251
H        2.18934236       0.21746522      -3.20156088
H        5.48567694       1.75573838      -2.69901015
H        7.51511323       2.54754848      -1.62093359
H        7.37822451       2.24957846      -6.56984992
H        2.65752070      -1.58390916      -7.75609184
H        2.40472453      -2.55039596     -10.00613612
H        3.45954526      -1.46269678     -11.96307672
H        5.03967643       1.61758079      -9.40313519
C       -1.79333722      -1.79333722      -1.79333722
C       -2.46798613      -1.23175829      -2.87378667
C       -3.29449484      -2.03275288      -3.65929847
C       -3.44792473      -3.38885236      -3.35751271
C       -2.74800689      -3.96710182      -2.28693730
C       -1.92154490      -3.15144193      -1.50152837
C       -2.91713330      -5.38664258      -1.95496057
C       -3.35046461      -5.93511799      -0.75479521
Cl      -3.73971731      -5.09766154       0.68056987
C       -3.50443465      -7.32424139      -0.97462802
N       -3.23188557      -7.62307657      -2.24949550
N       -2.78003999      -6.47614621      -2.81730908
C       -2.25893568      -6.55779921      -4.14914404
C       -1.43649770      -5.57093286      -4.69994852
C       -0.97545120      -5.68996746      -6.01809593
C       -1.31437029      -6.80313018      -6.79238933
Cl      -0.71708572      -6.86924840      -8.41101657
C       -2.10570957      -7.81293410      -6.24163006
Cl      -2.55621904      -9.22429952      -7.12808941
C       -2.56827674      -7.69347175      -4.92554048
C       -3.94195045      -8.37558884      -0.05619525
C       -3.44296405      -8.45090513       1.25254832
C       -3.86299275      -9.46776010       2.11447171
C       -4.77858864     -10.42271117       1.67511903
C       -5.26693436     -10.36054862       0.37158943
Br      -6.50031209     -11.66102182      -0.22929857
C       -4.85281808      -9.34870463      -0.49367915
H       -2.36528128      -0.17428169      -3.10460972
H       -3.83122503      -1.59900689      -4.50025372
H       -4.11972989      -3.98793359      -3.97016739
H       -1.38596678      -3.56984084      -0.65256085
H       -1.09908699      -4.70989172      -4.13144676
H       -0.34186636      -4.90926235      -6.43246659
H       -3.19032588      -8.48964827      -4.51767874
H       -2.71096141      -7.73159378       1.61285181
H       -3.47025517      -9.51768018       3.12747066
H       -5.09888933     -11.21157572       2.35053984
H       -5.23512510      -9.31353846      -1.51172885
C       -1.79333722       1.79333722       1.79333722
C       -2.13685774       1.36433503       3.07233833
C       -2.96507742       2.15764628       3.86382249
C       -3.45110599       3.37201452       3.37116929
C       -3.08508517       3.82351153       2.09344931
C       -2.25379765       3.01610540       1.30461216
C       -3.60482829       5.08982417       1.56408399
C       -4.34517539       5.28919291       0.40600951
Cl      -4.79133574       4.11324181      -0.74776856
C       -4.74841445       6.64532071       0.40956890
N       -4.32863353       7.24903055       1.52679356
N       -3.55362009       6.34368064       2.17619455
C       -2.83902692       6.79349500       3.33335700
C       -1.74421537       6.10268217       3.86048154
C       -1.09765780       6.57517578       5.01068100
C       -1.52462220       7.75082451       5.63444309
Cl      -0.68382640       8.25940368       7.05412061
C       -2.59434874       8.46909595       5.09682904
Cl      -3.17218678       9.93598369       5.80043750
C       -3.24192281       7.99636193       3.94900423
C       -5.55015328       7.38720178      -0.56362052
C       -5.31251619       7.26982133      -1.94101667
C       -6.08037223       7.99347187      -2.85756295
C       -7.08669896       8.84642182      -2.40694000
C       -7.31777774       8.97719787      -1.03908205
Br      -8.67478284      10.14164229      -0.42579265
C       -6.55608820       8.25805075      -0.11893709
H       -1.77493181       0.41349655       3.45574432
H       -3.24434381       1.82495057       4.86119126
H       -4.11780081       3.96137369       3.99865636
H       -1.97378743       3.33214641       0.30243463
H       -1.33629293       5.21275211       3.39138043
H       -0.25165079       6.02121812       5.41072638
H       -4.07897068       8.56857376       3.55010844
H       -4.51886052       6.62847194      -2.31762908
H       -5.88840468       7.89568480      -3.92362479
H       -7.67821929       9.40735812      -3.12565221
H       -6.74026075       8.37290272       0.94722894
C        1.79333722      -1.79333722       1.79333722
C        1.44247904      -3.12330757       2.00774449
C        2.23309884      -3.91755167       2.83589569
C        3.36617599      -3.37740337       3.45071043
C        3.74114188      -2.04529301       3.21561113
C        2.93694105      -1.25446762       2.38310654
C        4.92051127      -1.46750937       3.87071581
C        4.97348884      -0.35988964       4.70699934
Cl       3.68090514       0.66626001       5.14216385
C        6.29262930      -0.29621943       5.21445534
N        7.01147590      -1.32986581       4.76311593
N        6.21906559      -1.98054378       3.87388591
C        6.80956679      -3.04190883       3.11440330
C        6.24416118      -3.53017357       1.93304433
C        6.85169699      -4.58831925       1.24349834
C        8.03851713      -5.15630591       1.71506675
Cl       8.71732901      -6.46444020       0.81558149
C        8.63222712      -4.65363274       2.87441386
Cl      10.10388074      -5.29163277       3.51309447
C        8.02456513      -3.59794559       3.56477825
C        6.89506403       0.66234054       6.14101105
C        6.68722155       2.04192369       5.99602299
C        7.27846504       2.94550614       6.88332225
C        8.08853476       2.48047740       7.91812342
C        8.30942278       1.11187143       8.05834220
Br       9.41640578       0.48022974       9.45445643
C        7.72249008       0.20455408       7.17726586
H        0.55374710      -3.54538252       1.54504307
H        1.96049832      -4.95542893       3.01455839
H        3.95289427      -4.01076094       4.11417566
H        3.19265869      -0.21296625       2.20274353
H        5.35219927      -3.09660225       1.49162395
H        6.39418935      -4.95984775       0.32955819
H        8.50096578      -3.22552226       4.47116485
H        6.07783775       2.43206215       5.18392777
H        7.11129031       4.01338784       6.76256222
H        8.54645468       3.18938299       8.60285352
H        7.90720814      -0.86157191       7.29161236
C       -0.00445707       0.01189536      -1.78238275
H       -0.66409135       0.67374010      -2.43557963
H        0.65740317      -0.63156657      -2.45157240
C       -0.90989263      -0.90692880      -0.91072765
C        0.90977584       0.90977584      -0.90977584
C       -0.00465871       1.77757030       0.00794375
H       -0.66225468       2.44313916      -0.64384735
H        0.64322798       2.43503045       0.67728295
C       -1.78241447       0.00034974      -0.00472694
H       -2.45427497      -0.65498947       0.64260836
H       -2.43311707       0.67328779      -0.65473579
C       -0.91132561       0.90220522       0.91563759
C       -0.01476271      -0.02253852       1.78660255
H       -0.67934791      -0.69751639       2.42135241
H        0.63392994       0.61504881       2.47327442
C        0.01484550      -1.77751727      -0.01636693
H        0.67870853      -2.42144646      -0.68295456
H       -0.62264859      -2.45592969       0.64226336
C        1.78714474       0.01002794       0.00389507
H        2.44202412       0.67113390       0.66197326
H        2.45385902      -0.65136977      -0.64189061
C        0.91606151      -0.90478549       0.90901405
