182
Properties=species:S:1:pos:R:3 pbc="F F F"
C        1.79333722       1.79333722      -1.79333722
C        2.00647556       3.12373357      -1.44332197
C        2.78788910       3.93366820      -2.26498889
C        3.34676406       3.41229974      -3.43522599
C        3.15925089       2.06421399      -3.77858113
C        2.36895292       1.25921920      -2.94634308
C        3.72987814       1.51479070      -5.01406761
C        3.05657121       0.91396327      -6.06984334
Cl       1.38321016       0.59567748      -6.17792134
C        4.01120703       0.70016804      -7.09192898
N        5.20193486       1.18254767      -6.71997511
N        5.06083103       1.58206839      -5.43059586
C        6.24224962       1.99184362      -4.73178568
C        6.30889512       2.06113442      -3.33734954
C        7.48341328       2.49348563      -2.70661567
C        8.60814364       2.84219597      -3.45955019
Cl      10.01186852       3.37710785      -2.60837433
C        8.56578923       2.74295213      -4.85153236
Cl       9.91632360       3.14197211      -5.85031227
C        7.39199056       2.31309266      -5.48220576
C        3.84615156       0.10807842      -8.41950455
C        3.11399286      -1.07438268      -8.60171068
C        2.97439102      -1.63321893      -9.87510906
C        3.57087623      -1.02104091     -10.97634546
C        4.31081413       0.14623031     -10.79884912
C        4.45392911       0.70971117      -9.53156158
H        1.56182732       3.53974779      -0.54259757
H        2.95198784       4.97643481      -2.00206299
H        3.93160605       4.07205231      -4.07417251
H        2.18934236       0.21746522      -3.20156088
H        5.48567694       1.75573838      -2.69901015
H        7.51511323       2.54754848      -1.62093359
H        7.37822451       2.24957846      -6.56984992
H        2.65752070      -1.58390916      -7.75609184
H        2.40472453      -2.55039596     -10.00613612
H        3.45954526      -1.46269678     -11.96307672
H        5.03967643       1.61758079      -9.40313519
C        4.93439745       0.77507068     -11.93432419
C        5.45664847       1.30172449     -12.88528456
Br       6.30108421       2.15327915     -14.42290706
C       -1.79333722      -1.79333722      -1.79333722
C       -2.53654121      -1.21719946      -2.81979042
C       -3.36233722      -2.01993311      -3.60427586
C       -3.44646887      -3.39269258      -3.35512835
C       -2.67777787      -3.98397434      -2.34029380
C       -1.85263874      -3.16659930      -1.55527716
C       -2.77365630      -5.42198554      -2.06309462
C       -3.13183905      -6.03773457      -0.87080419
Cl      -3.49313855      -5.27783982       0.61416939
C       -3.23762371      -7.42193452      -1.14374583
N       -3.00815360      -7.65582771      -2.44047632
N       -2.62896166      -6.46801528      -2.97651834
C       -2.16280614      -6.47204934      -4.33102344
C       -1.40633755      -5.42874824      -4.87229329
C       -0.99799870      -5.47325072      -6.21226517
C       -1.32369567      -6.56704761      -7.01914652
Cl      -0.79449620      -6.54044451      -8.66240998
C       -2.04817544      -7.63190338      -6.48019491
Cl      -2.47777874      -9.02354640      -7.40728283
C       -2.45813860      -7.58695443      -5.14219594
C       -3.59135074      -8.52820090      -0.25418290
C       -3.03374543      -8.63594370       1.02836827
C       -3.37387656      -9.70469116       1.86228658
C       -4.26732404     -10.67924543       1.42038868
C       -4.81353958     -10.58438976       0.14203578
C       -4.47924748      -9.52076094      -0.69519345
H       -2.48765018      -0.14764765      -3.00887485
H       -3.95226724      -1.57535040      -4.40286800
H       -4.11872925      -3.99434698      -3.96475463
H       -1.26414744      -3.59624293      -0.74797810
H       -1.08059939      -4.57818716      -4.28163892
H       -0.41565071      -4.64951743      -6.61842715
H       -3.02861283      -8.42536555      -4.74367451
H       -2.31723609      -7.90125501       1.38878772
H       -2.93612419      -9.77944453       2.85510403
H       -4.52536010     -11.50840715       2.07384205
H       -4.90619607      -9.46007703      -1.69411930
C       -5.73019602     -11.59484177      -0.31875452
C       -6.49789578     -12.44109533      -0.70466640
Br      -7.73920137     -13.80941577      -1.32865328
C       -1.79333722       1.79333722       1.79333722
C       -2.22623528       1.31889066       3.02840515
C       -3.05426178       2.11416461       3.81811980
C       -3.45084477       3.37629391       3.36715111
C       -2.99443298       3.87190354       2.13570948
C       -2.16420529       3.06227431       1.34803560
C       -3.42003154       5.18950748       1.64919743
C       -4.08619214       5.48685625       0.46732942
Cl      -4.52911135       4.39666408      -0.76896646
C       -4.41958446       6.86069945       0.52302014
N       -4.03010362       7.38348383       1.69087018
N       -3.33801232       6.40608210       2.32940086
C       -2.66448637       6.75756983       3.54382272
C       -1.63601490       5.98320563       4.08815855
C       -1.02881298       6.36130886       5.29339275
C       -1.42826047       7.52490960       5.95671972
Cl      -0.63995050       7.91489732       7.44250287
C       -2.42975775       8.32584702       5.40466896
Cl      -2.96913919       9.78391409       6.15555470
C       -3.03811282       7.94743777       4.20173838
C       -5.12929459       7.69296939      -0.44852944
C       -4.82449492       7.63319831      -1.81637237
C       -5.50437549       8.44259325      -2.73068759
C       -6.48873339       9.32421022      -2.28676282
C       -6.78580082       9.39747389      -0.92738115
C       -6.11203375       8.59271743      -0.00954933
H       -1.93416834       0.33177240       3.37823194
H       -3.40310034       1.74663621       4.78074909
H       -4.11937072       3.96785728       3.99060286
H       -1.81521398       3.41339809       0.37975641
H       -1.24931756       5.09770148       3.59340643
H       -0.23470313       5.74321288       5.70567928
H       -3.82242164       8.58319976       3.79203148
H       -4.04543533       6.97023340      -2.18596535
H       -5.26080083       8.38898214      -3.78931827
H       -7.01162769       9.95183345      -3.00353594
H       -6.34697280       8.66292404       1.05049557
C       -7.79661554      10.31369263      -0.46651586
C       -8.64317287      11.08102583      -0.08054117
Br     -10.01198447      12.32173871       0.54354725
C        1.79333722      -1.79333722       1.79333722
C        1.46375753      -3.13339989       1.97637369
C        2.25374975      -3.92835193       2.80444452
C        3.36482037      -3.37899685       3.45047257
C        3.71884264      -2.03595681       3.24724657
C        2.91541948      -1.24459188       2.41450384
C        4.87473087      -1.44888238       3.93512320
C        4.89124995      -0.35647133       4.79265654
Cl       3.57165813       0.63712321       5.22227406
C        6.19931352      -0.27794785       5.32604269
N        6.94581102      -1.28937136       4.86927525
N        6.18246574      -1.93771386       3.95331568
C        6.80690144      -2.97340377       3.18557370
C        6.27283006      -3.44965971       1.98488930
C        6.91293652      -4.48313702       1.28744105
C        8.10132789      -5.03782483       1.77073708
Cl       8.82130288      -6.31591408       0.86013373
C        8.66382969      -4.54622463       2.95021941
Cl      10.13517842      -5.16877658       3.60465297
C        8.02362838      -3.51522279       3.64843780
C        6.76623966       0.67394009       6.28143497
C        6.53508960       2.05192472       6.15815597
C        7.09259536       2.94938868       7.07307447
C        7.89197712       2.47999233       8.11419599
C        8.13604917       1.11331308       8.23315748
C        7.58280786       0.21207790       7.32447190
H        0.59189418      -3.56306581       1.48921269
H        1.99754365      -4.97429709       2.95864490
H        3.95099663      -4.01378832       4.11304592
H        3.15471168      -0.19530486       2.25835193
H        5.38117443      -3.02444137       1.53480967
H        6.47955982      -4.84574987       0.35828561
H        8.47601464      -3.15122230       4.57041594
H        5.93360827       2.44597059       5.34206569
H        6.90753955       4.01607753       6.96900267
H        8.32364161       3.18420291       8.82048650
H        7.78548661      -0.85240931       7.42249649
C        8.96837048       0.62786888       9.30329072
C        9.66543957       0.22130937      10.19952732
Br      10.79254135      -0.43606298      11.64866609
C       -0.00445707       0.01189536      -1.78238275
H       -0.66409135       0.67374010      -2.43557963
H        0.65740317      -0.63156657      -2.45157240
C       -0.90989263      -0.90692880      -0.91072765
C        0.90977584       0.90977584      -0.90977584
C       -0.00465871       1.77757030       0.00794375
H       -0.66225468       2.44313916      -0.64384735
H        0.64322798       2.43503045       0.67728295
C       -1.78241447       0.00034974      -0.00472694
H       -2.45427497      -0.65498947       0.64260836
H       -2.43311707       0.67328779      -0.65473579
C       -0.91132561       0.90220522       0.91563759
C       -0.01476271      -0.02253852       1.78660255
H       -0.67934791      -0.69751639       2.42135241
H        0.63392994       0.61504881       2.47327442
C        0.01484550      -1.77751727      -0.01636693
H        0.67870853      -2.42144646      -0.68295456
H       -0.62264859      -2.45592969       0.64226336
C        1.78714474       0.01002794       0.00389507
H        2.44202412       0.67113390       0.66197326
H        2.45385902      -0.65136977      -0.64189061
C        0.91606151      -0.90478549       0.90901405
