174
Properties=species:S:1:pos:R:3 pbc="F F F"
C        1.79199988       1.79199988      -1.79199988
C        1.66751261       3.17684887      -1.72683784
C        2.48068559       3.97604727      -2.52682356
C        3.42040681       3.38801826      -3.37869272
C        3.55411534       1.99284698      -3.45071083
C        2.71552558       1.19850657      -2.65485394
C        4.52075538       1.37524370      -4.37296057
C        4.68893607       1.59876013      -5.73398261
Cl       3.92421977       2.78443675      -6.69421226
C        5.49895249       0.54019111      -6.21852626
N        5.82159830      -0.29033265      -5.22125806
N        5.35460201       0.29304981      -4.08898074
C        5.67525513      -0.33702058      -2.84978517
C        5.77090116      -1.74490828      -2.85471763
C        6.03503970      -2.44802442      -1.67883163
C        6.22332573      -1.75055333      -0.49218152
Cl       6.55000044      -2.61254436       0.95970578
C        6.17917433      -0.35768757      -0.47830565
C        5.92403021       0.35685046      -1.65809812
Cl       6.14266010       2.06853577      -1.56166135
C        5.90614017       0.22054645      -7.58763999
C        5.82955908      -1.10799833      -8.03744424
C        6.20653110      -1.44635056      -9.33855804
C        6.67049275      -0.45860823     -10.20376775
C        6.76096395       0.85980670      -9.75972623
Br       7.40274814       2.19623703     -10.93424313
C        6.38648760       1.20518215      -8.45863019
H        0.94297083       3.64064526      -1.06262980
H        2.38656983       5.05874840      -2.48792551
H        4.05274568       4.03783288      -3.98034149
H        2.76919832       0.11381208      -2.70643906
H        5.61639073      -2.31181226      -3.77311356
H        6.09223191      -3.53371456      -1.70070141
H        6.37809782       0.17412131       0.44939621
H        5.47219676      -1.89008435      -7.36954216
H        6.13900861      -2.47882642      -9.67194532
H        6.96265454      -0.72659812     -11.21572071
H        6.48407322       2.23609778      -8.12906317
C       -1.79199988      -1.79199988      -1.79199988
C       -2.52283441      -1.21931809      -2.82904682
C       -3.31820444      -2.02986750      -3.63548448
C       -3.37042507      -3.40835024      -3.40834248
C       -2.63648774      -3.99520079      -2.36598462
C       -1.85503324      -3.16544171      -1.54841113
C       -2.71933980      -5.44186117      -2.10775869
C       -3.85005812      -6.23174512      -1.93987556
Cl      -5.47967220      -5.77125809      -2.15193850
C       -3.40406898      -7.46156104      -1.39203983
N       -2.07641625      -7.44352558      -1.23258188
N       -1.65207460      -6.28593840      -1.79861956
C       -0.24328497      -6.07293712      -1.87179763
C        0.53782870      -6.59810986      -0.82042933
C        1.91828236      -6.39807065      -0.78605863
C        2.53239037      -5.68753471      -1.80980959
Cl       4.23373127      -5.43900498      -1.77247659
C        1.78269802      -5.20261813      -2.87987230
C        0.39592805      -5.40815292      -2.92675391
Cl      -0.37649883      -4.98311128      -4.41324711
C       -4.17400199      -8.61543366      -0.92489096
C       -3.83810166      -9.21910940       0.29820607
C       -4.55443696     -10.31885622       0.77455460
C       -5.61292018     -10.83129644       0.02856434
C       -5.94348103     -10.24479363      -1.19222221
Br      -7.37419144     -10.95118773      -2.20784913
C       -5.23013004      -9.14477462      -1.67539526
H       -2.48236491      -0.14920412      -3.01467686
H       -3.89798508      -1.59110154      -4.44415712
H       -3.98812835      -4.01868329      -4.06410842
H       -1.29696783      -3.58001208      -0.71246956
H        0.07427708      -7.14976816      -0.00220095
H        2.50123999      -6.79978423       0.03932548
H        2.28646060      -4.69186701      -3.69741652
H       -3.01024701      -8.83038195       0.88897439
H       -4.28328763     -10.77306896       1.72422907
H       -6.16779401     -11.68736473       0.40338162
H       -5.49387039      -8.71661688      -2.63874691
C       -1.79199988       1.79199988       1.79199988
C       -2.53786217       1.21657880       2.81675835
C       -3.33319485       2.02702374       3.62333783
C       -3.37042832       3.40799356       3.40869591
C       -2.62128151       3.99760247       2.37878917
C       -1.83993740       3.16818421       1.56076447
C       -2.68821599       5.44732176       2.13342190
C       -3.80989513       6.24933714       1.96244654
Cl      -5.44565237       5.80224337       2.15497305
C       -3.34733129       7.47995525       1.43038332
N       -2.01846306       7.45091867       1.28314197
N       -1.61027053       6.28416653       1.84219550
C       -0.20427771       6.05725010       1.92649192
C        0.59155130       6.58482680       0.88743500
C        1.97034310       6.37214008       0.86404994
C        2.56814587       5.64634953       1.88675027
Cl       4.26737277       5.38218570       1.86293737
C        1.80393472       5.15855569       2.94517145
C        0.41876069       5.37668033       2.98105914
Cl      -0.37154220       4.94508935       4.45622567
C       -4.10204969       8.64532246       0.96695446
C       -3.74904805       9.25718354      -0.24722660
C       -4.45059131      10.36801126      -0.71986399
C       -5.51122356      10.88341143       0.02101727
C       -5.85870442      10.28869310       1.23309936
Br      -7.29226015      10.99901882       2.24194932
C       -5.16021195       9.17755768       1.71253029
H       -2.50911465       0.14444810       2.99268314
H       -3.92462033       1.58621405       4.42240936
H       -3.98855832       4.01797256       4.06438918
H       -1.27019423       3.58525882       0.73399642
H        0.14087790       7.14842216       0.07014776
H        2.56475720       6.77602649       0.04794947
H        2.29520321       4.63549204       3.76253409
H       -2.91933139       8.86620820      -0.83388502
H       -4.16629980      10.82848351      -1.66265580
H       -6.05454538      11.74811703      -0.35088529
H       -5.43698098       8.74294098       2.66931221
C        1.79199988      -1.79199988       1.79199988
C        2.11947904      -3.07845554       1.37326474
C        2.93138950      -3.87466568       2.17750124
C        3.42005886      -3.37765218       3.38940675
C        3.09631796      -2.08165552       3.81969966
C        2.26150007      -1.29707849       3.01030753
C        3.58442687      -1.57284511       5.11168767
C        3.49387376      -2.16011680       6.36768824
Cl       2.93208335      -3.72720173       6.74358370
C        3.80262091      -1.14560125       7.30944771
N        4.07466155       0.00300304       6.68086520
N        4.08556938      -0.29390467       5.35715851
C        4.47355640       0.74392707       4.45839039
C        4.12628384       2.06355449       4.81798115
C        4.42495029       3.13618386       3.97708048
C        5.08824837       2.90229773       2.77900328
Cl       5.45941393       4.22113392       1.73947029
C        5.48046722       1.61119666       2.43052185
C        5.19272058       0.52890289       3.27516110
Cl       5.94485997      -0.97013477       2.85786248
C        3.76314019      -1.17894117       8.77224525
C        3.17857416      -0.10960284       9.47082800
C        3.12116484      -0.11168765      10.86588609
C        3.65395541      -1.18273205      11.57896481
C        4.24687974      -2.24129009      10.89232704
Br       4.97980920      -3.68837936      11.86503973
C        4.30875456      -2.24511393       9.49643143
H        1.74763126      -3.46898835       0.42962627
H        3.18759595      -4.88341555       1.86223224
H        4.06488574      -4.01664664       3.98938768
H        1.96442903      -0.29975496       3.32526547
H        3.59645980       2.26754398       5.74877621
H        4.13769015       4.14440805       4.26593666
H        6.04259408       1.45272914       1.51295799
H        2.76197208       0.73545732       8.92513981
H        2.66322248       0.72248616      11.39139119
H        3.60686169      -1.18013236      12.66478308
H        4.79307097      -3.07207568       8.98408752
C       -0.00445707       0.01189536      -1.78238275
H       -0.66409135       0.67374010      -2.43557963
H        0.65740317      -0.63156657      -2.45157240
C       -0.90989263      -0.90692880      -0.91072765
C        0.90977584       0.90977584      -0.90977584
C       -0.00465871       1.77757030       0.00794375
H       -0.66225468       2.44313916      -0.64384735
H        0.64322798       2.43503045       0.67728295
C       -1.78241447       0.00034974      -0.00472694
H       -2.45427497      -0.65498947       0.64260836
H       -2.43311707       0.67328779      -0.65473579
C       -0.91132561       0.90220522       0.91563759
C       -0.01476271      -0.02253852       1.78660255
H       -0.67934791      -0.69751639       2.42135241
H        0.63392994       0.61504881       2.47327442
C        0.01484550      -1.77751727      -0.01636693
H        0.67870853      -2.42144646      -0.68295456
H       -0.62264859      -2.45592969       0.64226336
C        1.78714474       0.01002794       0.00389507
H        2.44202412       0.67113390       0.66197326
H        2.45385902      -0.65136977      -0.64189061
C        0.91606151      -0.90478549       0.90901405
