189
Properties=species:S:1:pos:R:3 pbc="F F F"
C        0.00000000       0.00000000       0.00000000
C       11.01470872       8.29187875      -0.16614898
O       10.09766680       7.42996531      -0.84118822
C       10.47691760       7.09404960      -2.09765434
O       11.50274828       7.45211755      -2.65817775
C        9.45264864       6.22185880      -2.73543532
C        8.31487973       5.78390141      -2.05256179
C        7.38220629       4.96816883      -2.69326370
C        7.55247944       4.59585663      -4.03472937
C        8.71065209       5.01899914      -4.70786204
C        9.65108558       5.82669075      -4.06390003
C        6.58054193       3.68196388      -4.74382554
N        5.18612047       3.87025271      -4.34497381
N        4.61756782       2.88513312      -3.62045781
C        3.38454572       3.32624991      -3.33258044
C        2.50194278       2.50562083      -2.49802372
C        1.66844005       3.07494904      -1.52544765
C        0.85607231       2.26589945      -0.72256399
C        0.88182820       0.88182820      -0.88182820
C        1.71468783       0.29708118      -1.83041382
C        2.52186430       1.10764004      -2.63319515
C        3.16305779       4.59240071      -3.94482978
Cl       1.71104500       5.48741592      -3.92340866
C        4.34652022       4.93870763      -4.58257118
C        4.71014352       6.16969643      -5.29632571
C        4.48313581       7.41851427      -4.69636319
C        4.80688144       8.60606100      -5.36066340
C        5.37755201       8.55098588      -6.62839820
Br       5.82733863      10.15215317      -7.52639822
C        5.61018555       7.32326871      -7.24199879
C        5.26258930       6.13864568      -6.58380960
H       10.63689506       8.46127204       0.84525615
H       11.07670883       9.25648805      -0.67948888
H       12.00226492       7.82582810      -0.09321392
H        8.14121931       6.06257792      -1.01544654
H        6.51667035       4.62316407      -2.12538512
H        8.89348716       4.71898140      -5.73805815
H       10.54267756       6.14441163      -4.60432092
H        6.85372707       2.64115748      -4.52717766
H        6.62295834       3.80559225      -5.82926714
H        1.65324913       4.14905655      -1.36044236
H        0.21644203       2.72583069       0.02626600
H        1.75095433      -0.78204039      -1.95241123
H        3.17936015       0.64071770      -3.36520114
H        4.04555266       7.48288118      -3.70263608
H        4.60853532       9.55991909      -4.88009103
H        6.04853885       7.27698843      -8.23469899
H        5.41348081       5.19641090      -7.10386909
C      -12.47503864      -1.26320690      -5.73449091
O      -11.08317766      -1.58154317      -5.70409950
C      -10.63697230      -2.21789380      -6.81375544
O      -11.30874573      -2.51243531      -7.79186254
C       -9.18850560      -2.53700056      -6.68443659
C       -8.43240965      -2.14085494      -5.57807835
C       -7.07773317      -2.46453138      -5.50137427
C       -6.45769595      -3.21228447      -6.51308501
C       -7.21734022      -3.58602678      -7.63414626
C       -8.57140200      -3.25279879      -7.71747558
C       -4.98428643      -3.54465493      -6.47738999
N       -4.46384701      -3.80237326      -5.13512672
N       -3.63085210      -2.87919773      -4.61310892
C       -3.35731670      -3.31212491      -3.37393446
C       -2.50599585      -2.50106856      -2.49852293
C       -2.77854326      -2.35940133      -1.13089215
C       -1.96560809      -1.55609140      -0.32283627
C       -0.88182820      -0.88182820      -0.88182820
C       -0.60503761      -0.99680045      -2.24034477
C       -1.41619801      -1.80257466      -3.04392682
C       -3.99041276      -4.56637174      -3.14350378
Cl      -3.84928707      -5.52974113      -1.74284139
C       -4.71779804      -4.86148984      -4.28851115
C       -5.62379996      -5.98270076      -4.56966494
C       -6.63392375      -6.31212062      -3.65196890
C       -7.50045923      -7.38418615      -3.88896046
C       -7.37174629      -8.12651625      -5.05867355
Br      -8.54688582      -9.56943023      -5.38957398
C       -6.37635226      -7.81757369      -5.98152711
C       -5.49649469      -6.75952863      -5.72902127
H      -12.71661913      -0.71711528      -4.81917654
H      -13.07323681      -2.17936009      -5.76008886
H      -12.70731319      -0.62287422      -6.59111951
H       -8.88096871      -1.57117570      -4.76709935
H       -6.50929628      -2.11984543      -4.63607783
H       -6.76009854      -4.13537178      -8.45505640
H       -9.14291629      -3.55276459      -8.59572924
H       -4.42264199      -2.70084986      -6.89857036
H       -4.74973786      -4.42202941      -7.08605046
H       -3.63576917      -2.84979025      -0.67718862
H       -2.19297996      -1.45858791       0.73556115
H        0.23005346      -0.46419940      -2.68717922
H       -1.19914730      -1.87758651      -4.10854518
H       -6.75638198      -5.73911887      -2.73556907
H       -8.26506202      -7.62701930      -3.15646413
H       -6.26834327      -8.39982481      -6.89205819
H       -4.70091056      -6.56855798      -6.44429227
C       -0.44413131      11.61971314       7.40889200
O       -1.10476073      10.58529420       6.67876540
C       -2.41039531      10.83799338       6.42023284
O       -3.02504628      11.84404338       6.74395392
C       -3.02589249       9.69903447       5.68501580
C       -2.28650310       8.58450378       5.28033605
C       -2.90818009       7.54101648       4.59444225
C       -4.28371358       7.57654341       4.32280845
C       -5.01625272       8.71086381       4.71039673
C       -4.39259650       9.76164385       5.38743602
C       -4.97760739       6.48065721       3.54806675
N       -4.45115069       5.14133745       3.80885885
N       -3.75954144       4.55015728       2.81346003
C       -3.33737837       3.38368780       3.32230990
C       -2.49776706       2.50254825       2.50527202
C       -1.41862475       1.79613064       3.05408134
C       -0.61542625       0.98331183       2.24579769
C       -0.88182820       0.88182820       0.88182820
C       -1.93826125       1.58816475       0.31575683
C       -2.74081162       2.39595861       1.12592926
C       -3.83034067       3.22180709       4.64814052
Cl      -3.61998475       1.85501041       5.64687443
C       -4.53569956       4.37758922       4.95451025
C       -5.18077402       4.78638227       6.20900937
C       -4.47015042       4.71043329       7.41742957
C       -5.06610487       5.07978639       8.62771459
C       -6.37731127       5.54512656       8.63449827
Br      -7.18424822       6.05614258      10.26549922
C       -7.10033631       5.62737202       7.44774473
C       -6.50825026       5.23409547       6.24269885
H        0.60513552      11.33584934       7.52219713
H       -0.88544390      11.72205563       8.40518623
H       -0.48932735      12.56785592       6.86412366
H       -1.22026394       8.51452661       5.48445322
H       -2.29852453       6.69588320       4.27081181
H       -6.07801322       8.78871566       4.48379783
H       -4.97922259      10.63250519       5.67968234
H       -4.86474477       6.68230462       2.47501282
H       -6.05015435       6.44991888       3.75774450
H       -1.17113838       1.88282503       4.10878463
H        0.21693085       0.44330760       2.68962997
H       -2.14514824       1.52528931      -0.74911239
H       -3.55847069       2.95442255       0.67238575
H       -3.44153272       4.35711132       7.43242588
H       -4.49908011       4.99868931       9.55077603
H       -8.12661216       5.98303902       7.45057509
H       -7.10968051       5.26598160       5.33809870
C        6.97741051      -0.61934954      11.87597640
O        6.31322286      -1.26600502      10.78959245
C        6.09668564      -2.58935038      10.98258552
O        6.40608575      -3.23029557      11.97666226
C        5.42958733      -3.18703773       9.79331770
C        5.03855111      -2.42034090       8.69245092
C        4.41734702      -3.02607931       7.60021249
C        4.19865041      -4.41120816       7.57320686
C        4.57160629      -5.17248411       8.69342287
C        5.18361658      -4.56538873       9.79267105
C        3.49353304      -5.09035286       6.42244544
N        3.78379657      -4.50238947       5.11516095
N        2.78506186      -3.82616288       4.51193400
C        3.32058687      -3.33976004       3.38302916
C        2.50508074      -2.49767148       2.50283512
C        3.03743622      -1.37177314       1.85962738
C        2.22952265      -0.56838949       1.04662362
C        0.88182820      -0.88182820       0.88182820
C        0.33134980      -1.98569825       1.52513478
C        1.14131335      -2.78816672       2.33321942
C        4.66986600      -3.77568540       3.25473688
Cl       5.71039650      -3.47446776       1.93700533
C        4.95985000      -4.51372282       4.39422622
C        6.22235319      -5.12657499       4.82723748
C        7.40401686      -4.36848429       4.82551213
C        8.62193388      -4.93241069       5.21926127
C        8.66252489      -6.25964875       5.63476245
Br      10.30346032      -7.02393823       6.17849147
C        7.50274427      -7.02955259       5.64315619
C        6.29111178      -6.46835443       5.22557837
H        7.06015049       0.44375432      11.63651478
H        7.98565942      -1.02646976      12.00055657
H        6.39948402      -0.72214527      12.79967765
H        5.20324319      -1.34524442       8.67075616
H        4.10216845      -2.39642123       6.76662986
H        4.38399352      -6.24426426       8.72226893
H        5.46558581      -5.17424186      10.65158244
H        2.41004529      -5.02599616       6.58602076
H        3.74606700      -6.15220804       6.35954268
H        4.07761989      -1.08829843       1.99682971
H        2.66045016       0.30061428       0.55617084
H       -0.72147259      -2.22994962       1.41284813
H        0.69941759      -3.64358319       2.84227821
H        7.39201985      -3.32698368       4.51206639
H        9.52447889      -4.32825952       5.19580703
H        7.53236150      -8.06813481       5.95972996
H        5.41020297      -7.10423704       5.19932079
