197
Properties=species:S:1:pos:R:3 pbc="F F F"
C        0.00000000       0.00000000       0.00000000
C       11.01470872       8.29187875      -0.16614898
O       10.09766680       7.42996531      -0.84118822
C       10.47691760       7.09404960      -2.09765434
O       11.50274828       7.45211755      -2.65817775
C        9.45264864       6.22185880      -2.73543532
C        8.31487973       5.78390141      -2.05256179
C        7.38220629       4.96816883      -2.69326370
C        7.55247944       4.59585663      -4.03472937
C        8.71065209       5.01899914      -4.70786204
C        9.65108558       5.82669075      -4.06390003
C        6.58054193       3.68196388      -4.74382554
N        5.18612047       3.87025271      -4.34497381
N        4.61756782       2.88513312      -3.62045781
C        3.38454572       3.32624991      -3.33258044
C        2.50194278       2.50562083      -2.49802372
C        1.66844005       3.07494904      -1.52544765
C        0.85607231       2.26589945      -0.72256399
C        0.88182820       0.88182820      -0.88182820
C        1.71468783       0.29708118      -1.83041382
C        2.52186430       1.10764004      -2.63319515
C        3.16305779       4.59240071      -3.94482978
Cl       1.71104500       5.48741592      -3.92340866
C        4.34652022       4.93870763      -4.58257118
C        4.71014352       6.16969643      -5.29632571
C        4.48313581       7.41851427      -4.69636319
C        4.80688144       8.60606100      -5.36066340
C        5.37755201       8.55098588      -6.62839820
C        5.61018555       7.32326871      -7.24199879
C        5.26258930       6.13864568      -6.58380960
H       10.63689506       8.46127204       0.84525615
H       11.07670883       9.25648805      -0.67948888
H       12.00226492       7.82582810      -0.09321392
H        8.14121931       6.06257792      -1.01544654
H        6.51667035       4.62316407      -2.12538512
H        8.89348716       4.71898140      -5.73805815
H       10.54267756       6.14441163      -4.60432092
H        6.85372707       2.64115748      -4.52717766
H        6.62295834       3.80559225      -5.82926714
H        1.65324913       4.14905655      -1.36044236
H        0.21644203       2.72583069       0.02626600
H        1.75095433      -0.78204039      -1.95241123
H        3.17936015       0.64071770      -3.36520114
H        4.04555266       7.48288118      -3.70263608
H        4.60853532       9.55991909      -4.88009103
H        6.04853885       7.27698843      -8.23469899
H        5.41348081       5.19641090      -7.10386909
C        5.72022985       9.77086332      -7.31255530
C        6.00722254      10.79251067      -7.88553686
Br       6.47126545      12.44442804      -8.81199960
C      -12.57391568      -1.42376885      -5.47505192
O      -11.17479280      -1.70997286      -5.48405468
C      -10.74027537      -2.31007256      -6.61827361
O      -11.42788449      -2.59779436      -7.58736474
C       -9.28223841      -2.59798641      -6.52971794
C       -8.50967224      -2.20967687      -5.43199382
C       -7.14650478      -2.50315238      -5.39398167
C       -6.53339701      -3.21276131      -6.43690711
C       -7.31036817      -3.57842579      -7.54871931
C       -8.67329568      -3.27523757      -7.59314312
C       -5.05232331      -3.51120014      -6.44280790
N       -4.49476182      -3.78734009      -5.11924508
N       -3.67113087      -2.85708391      -4.59494398
C       -3.35874263      -3.31176827      -3.37286517
C       -2.50593347      -2.50124253      -2.49841134
C       -2.74949279      -2.39739951      -1.12194444
C       -1.93645145      -1.59397254      -0.31411178
C       -0.88182820      -0.88182820      -0.88182820
C       -0.63442612      -0.95909999      -2.24865672
C       -1.44553218      -1.76505084      -3.05211647
C       -3.95733754      -4.58547725      -3.15747349
Cl      -3.76133827      -5.57712725      -1.78340407
C       -4.70443140      -4.87125396      -4.29211368
C       -5.59083862      -6.00667378      -4.57865326
C       -6.57133459      -6.38065548      -3.64602319
C       -7.41838709      -7.46704277      -3.88817598
C       -7.30017076      -8.17913752      -5.07762782
C       -6.33404818      -7.82584946      -6.01555542
C       -5.47299532      -6.75351818      -5.75853108
H      -12.80640907      -0.90462310      -4.54187878
H      -13.15138959      -2.35287785      -5.50841832
H      -12.84084427      -0.76959241      -6.31087025
H       -8.95202161      -1.66942070      -4.59780146
H       -6.56597307      -2.16515154      -4.53409494
H       -6.86004004      -4.09792726      -8.39255942
H       -9.25823237      -3.56831748      -8.46486027
H       -4.52020775      -2.64501555      -6.85683891
H       -4.81206824      -4.36864553      -7.07710396
H       -3.58436974      -2.91803907      -0.66033923
H       -2.14110272      -1.52612031       0.75121631
H        0.17752135      -0.39694785      -2.70189867
H       -1.25185811      -1.81052308      -4.12289780
H       -6.68536128      -5.83184397      -2.71386467
H       -8.15982461      -7.74447791      -3.14424292
H       -6.23411322      -8.38437893      -6.94173412
H       -4.69900002      -6.52758560      -6.48717519
C       -8.17570297      -9.29308249      -5.33486301
C       -8.90896120     -10.22601140      -5.55029748
Br     -10.09457775     -11.73447855      -5.89863679
C       -0.47435649      11.66857148       7.32980847
O       -1.13275735      10.62436946       6.61169352
C       -2.44194108      10.86602305       6.36065741
O       -3.06141883      11.86998925       6.68163551
C       -3.05450606       9.71756813       5.63786856
C       -2.31009681       8.60543106       5.23581506
C       -2.92917120       7.55274940       4.56171822
C       -4.30680174       7.57665618       4.29960751
C       -5.04462192       8.70850898       4.68438237
C       -4.42368252       9.76843412       5.34955973
C       -4.99834351       6.47043906       3.53754877
N       -4.46057291       5.13674569       3.80402839
N       -3.77181652       4.54340503       2.80793720
C       -3.33781311       3.38357857       3.32198439
C       -2.49774811       2.50260126       2.50523796
C       -1.40978098       1.80771581       3.05133994
C       -0.60655004       0.99486140       2.24312432
C       -0.88182820       0.88182820       0.88182820
C       -1.94720825       1.57667011       0.31830447
C       -2.74974212       2.38451779       1.12843958
C       -3.82026130       3.22764004       4.65238694
Cl      -3.59318169       1.86948002       5.65920788
C       -4.53162707       4.38056871       4.95560325
C       -5.17073146       4.79369762       6.21173658
C       -4.45109082       4.73133308       7.41558936
C       -5.04110933       5.10505637       8.62744015
C       -6.35550411       5.56118357       8.64024842
C       -7.08743759       5.62991062       7.45810484
C       -6.50108065       5.23227500       6.25168893
H        0.57767025      11.39291821       7.43766299
H       -0.90935398      11.77486868       8.32846310
H       -0.53011569      12.61248316       6.77870809
H       -1.24197637       8.54441763       5.43284976
H       -2.31582972       6.70965733       4.23973249
H       -6.10847818       8.77726872       4.46477981
H       -5.01439934      10.63719254       5.63981824
H       -4.89447728       6.66525791       2.46232702
H       -6.06914151       6.43363358       3.75504264
H       -1.15549139       1.90363291       4.10362373
H        0.23272387       0.46389750       2.68483309
H       -2.16114110       1.50478467      -0.74460061
H       -3.57451813       2.93397513       0.67678573
H       -3.41991197       4.38538211       7.42577584
H       -4.46703426       5.03450760       9.54700359
H       -8.11616577       5.97834950       7.46571101
H       -7.10908025       5.25350387       5.35117668
C       -6.96426032       5.95497599       9.88441215
C       -7.47409365       6.28477715      10.92639928
Br      -8.29845102       6.81803773      12.61120434
C        6.80183169      -0.69781818      11.97308658
O        6.16475630      -1.33752537      10.86653867
C        5.96606902      -2.66692783      11.03562469
O        6.27008999      -3.31854433      12.02440926
C        5.32690534      -3.25610815       9.82692927
C        4.94094438      -2.47835573       8.73204283
C        4.34629008      -3.07639929       7.62094945
C        4.14981547      -4.46414888       7.56910109
C        4.51731620      -5.23706512       8.68313195
C        5.10264926      -4.63791714       9.80110997
C        3.47332580      -5.13595925       6.39704630
N        3.77449723      -4.52312204       5.10372772
N        2.77471222      -3.85302799       4.49541854
C        3.31992256      -3.34073595       3.38271757
C        2.50499910      -2.49763801       2.50295022
C        3.02948918      -1.35368192       1.88566564
C        2.22172544      -0.55021724       1.07259308
C        0.88182820      -0.88182820       0.88182820
C        0.33887216      -2.00404310       1.49926757
C        1.14874706      -2.80648389       2.30746855
C        4.67770306      -3.75368007       3.26890515
Cl       5.73362369      -3.41575530       1.97249060
C        4.96158915      -4.50494889       4.40126100
C        6.22671504      -5.10493290       4.84451772
C        7.39621374      -4.32872991       4.87306962
C        8.61660300      -4.87987282       5.27713003
C        8.67160252      -6.21268581       5.67264776
C        7.52406395      -7.00046547       5.65092363
C        6.31036895      -6.45157879       5.22309684
H        6.87155937       0.37006711      11.75141869
H        7.81430288      -1.09120769      12.10717518
H        6.21137878      -0.82402940      12.88589875
H        5.08904911      -1.40063340       8.72956126
H        4.03418795      -2.43867683       6.79235477
H        4.34613371      -6.31193859       8.69245441
H        5.38083181      -5.25575090      10.65482741
H        2.38656156      -5.09093831       6.54456234
H        3.74344579      -6.19266443       6.32170750
H        4.06284746      -1.05634869       2.04355188
H        2.64648463       0.33293974       0.60246184
H       -0.70812293      -2.26274918       1.36669891
H        0.71252127      -3.67651862       2.79623911
H        7.37271053      -3.28274551       4.57561388
H        9.50980416      -4.26154612       5.27719516
H        7.56508892      -8.04330889       5.95182846
H        5.44006560      -7.10051407       5.17318113
C        9.92421379      -6.78200842       6.09742626
C       10.97327573      -7.25881610       6.45317825
Br      12.66952016      -8.02977380       7.02839912
