189
Properties=species:S:1:pos:R:3 pbc="F F F"
C        0.00000000       0.00000000       0.00000000
C       10.14654144      -7.25163443      -2.21628881
O        9.01605187      -6.44966620      -1.87662825
C        9.29745362      -5.13350260      -1.71070933
O       10.40208349      -4.61926518      -1.82058041
C        8.06784675      -4.37013696      -1.36245691
C        6.82733382      -4.99548321      -1.18582623
C        5.70867303      -4.24102189      -0.83552668
C        5.82195278      -2.86211781      -0.66007465
C        7.05228813      -2.21264826      -0.84319426
C        8.17392732      -2.98044822      -1.19480546
C        7.19068297      -0.72906050      -0.59465394
N        6.33653320       0.07966569      -1.46246684
N        5.09703102       0.35499081      -1.00419881
C        4.48050240       1.00577551      -2.00123525
C        3.06311002       1.36869877      -1.84944116
C        2.50574941       2.50163317      -2.45770148
C        1.14919872       2.80753351      -2.29791098
C        0.33514443       1.99658328      -1.51006049
C        0.88213846       0.88213846      -0.88213846
C        2.23048852       0.56576825      -1.04893826
C        5.38982494       1.20118340      -3.08217558
Cl       5.05202314       1.98165078      -4.56341059
C        6.59867294       0.62127828      -2.70603976
C        7.86901467       0.52694360      -3.44474580
C        7.87450173       0.16400833      -4.80160396
C        9.06270855       0.12560926      -5.53822653
C       10.27506620       0.41372545      -4.91943713
C       10.28555240       0.76493718      -3.57315951
Br      11.93060472       1.13214778      -2.71531885
C        9.09408150       0.85083530      -2.84642610
H        9.80599321      -8.28441929      -2.32525907
H       10.89533924      -7.21523883      -1.41946857
H       10.57442814      -6.92525240      -3.16834935
H        6.71869592      -6.07057873      -1.30582155
H        4.74725831      -4.72845546      -0.69029216
H        4.93850611      -2.29531868      -0.37001206
H        9.14454514      -2.50211897      -1.32464034
H        8.22424449      -0.40127018      -0.70506912
H        6.91121117      -0.50617936       0.44310430
H        3.11242715       3.18020628      -3.05004883
H        0.73175106       3.68642230      -2.78360934
H       -0.71510892       2.24555247      -1.38561272
H        2.64189905      -0.30940843      -0.54993433
H        6.94651917      -0.08410683      -5.31285326
H        9.03773050      -0.12998540      -6.59447839
H       11.19784297       0.36750410      -5.49210180
H        9.13386954       1.19432605      -1.81682176
C        4.82075036       1.66309283     -11.59503900
O        4.27119845       1.56730240     -10.28151477
C        2.92003238       1.45594844     -10.25064116
O        2.18150272       1.44096709     -11.22586854
C        2.42983798       1.35844450      -8.84844918
C        3.29423892       1.43759048      -7.74950624
C        2.78479810       1.36590137      -6.45387730
C        1.41357499       1.21530628      -6.24879089
C        0.53004493       1.12207534      -7.33495440
C        1.05167223       1.19638340      -8.63634019
C       -0.96102205       1.02001574      -7.11527010
N       -1.34903000      -0.16975279      -6.35988293
N       -1.39496647      -0.04465840      -5.01659577
C       -1.66625027      -1.27180750      -4.54945540
C       -1.69168679      -1.49398112      -3.09558203
C       -2.51123086      -2.45912222      -2.49473097
C       -2.49906613      -2.64778396      -1.10779313
C       -1.68283810      -1.85937004      -0.29958005
C       -0.88213846      -0.88213846      -0.88213846
C       -0.88097604      -0.69915729      -2.26506171
C       -1.86428103      -2.16838767      -5.64051521
Cl      -2.23264456      -3.83265411      -5.53178584
C       -1.68470223      -1.43238465      -6.80890410
C       -1.76337627      -1.86222160      -8.21510620
C       -1.15502526      -3.05997868      -8.62511008
C       -1.26699859      -3.51765163      -9.94189412
C       -1.95975776      -2.76418718     -10.88428383
C       -2.55884188      -1.57046862     -10.49433859
Br      -3.47987327      -0.52496853     -11.77322955
C       -2.48922615      -1.13450955      -9.16760720
H        5.90631585       1.74722406     -11.50037290
H        4.44623750       2.55692422     -12.10273069
H        4.59165780       0.76255786     -12.17174076
H        4.36506201       1.56698454      -7.88598529
H        3.45573110       1.43584575      -5.60067186
H        1.03618508       1.17857185      -5.22795641
H        0.38410858       1.14509732      -9.49627243
H       -1.50495442       1.03650784      -8.05959685
H       -1.30663871       1.89575691      -6.55104570
H       -3.18896288      -3.06988617      -3.08383321
H       -3.13580946      -3.40671873      -0.65925452
H       -1.68508767      -2.00772116       0.77675257
H       -0.24887138       0.07031599      -2.70386957
H       -0.59122999      -3.66562192      -7.91841369
H       -0.81179764      -4.46239375     -10.22803210
H       -2.03103214      -3.11615042     -11.91026631
H       -3.02630822      -0.23379916      -8.88490998
C        3.05333625      11.75682749      -3.59229543
O        2.79903630      10.41627599      -3.17422577
C        2.56321823      10.28330381      -1.84542523
O        2.56242361      11.19099917      -1.02517683
C        2.30523072       8.85985569      -1.49445827
C        2.37083948       7.83403391      -2.44551759
C        2.14559035       6.51239016      -2.06362199
C        1.85450939       6.20842790      -0.73400889
C        1.77212168       7.22125512       0.23370070
C        2.00155597       8.54938815      -0.15954762
C        1.51710467       6.88842323       1.68495785
N        0.23828629       6.21458054       1.90237147
N        0.24646098       4.86634006       1.83634156
C       -1.03486066       4.49165821       1.96099431
C       -1.37864955       3.06692671       1.83567369
C       -2.46089239       2.49012300       2.51406867
C       -2.76243826       1.13190213       2.36030282
C       -1.97314542       0.32615468       1.54248809
C       -0.88213846       0.88213846       0.88213846
C       -0.58535331       2.23800051       1.02184122
C       -1.85179763       5.63937248       2.18201380
Cl      -3.54589707       5.65200053       2.39918691
C       -1.00785037       6.74694531       2.17119530
C       -1.32452988       8.17493435       2.34123984
C       -2.42377594       8.74125109       1.67508700
C       -2.77854610      10.08026066       1.86773758
C       -2.01532415      10.88937036       2.70353426
C       -0.91757466      10.34409755       3.36197688
Br       0.14272631      11.44161802       4.47917964
C       -0.58902868       8.99366377       3.20865045
H        3.22756329      11.74558499      -4.67118871
H        3.94858868      12.14828529      -3.10012764
H        2.18684595      12.39187642      -3.38750538
H        2.60788213       8.04683694      -3.48501607
H        2.20494380       5.71516850      -2.80112970
H        1.69881394       5.16729959      -0.45528617
H        1.96158459       9.35187081       0.57678030
H        1.56264971       7.77878941       2.31190372
H        2.30782058       6.22017933       2.04956875
H       -3.07954264       3.07381692       3.18932270
H       -3.61076364       0.70273166       2.88828741
H       -2.21014740      -0.72868878       1.43459764
H        0.27219906       2.65617095       0.49845307
H       -3.03240285       8.14187782       1.00098493
H       -3.65092585      10.48792493       1.36337270
H       -2.28569441      11.93357801       2.83817645
H        0.23250288       8.58659952       3.79092071
C       -3.40593210     -11.76120795      -3.24408003
O       -3.11117855     -10.41775791      -2.86356544
C       -2.84121906     -10.25989771      -1.54401830
O       -2.84198949     -11.14829505      -0.70290682
C       -2.54245363      -8.83522259      -1.23260226
C       -2.60682409      -7.83024241      -2.20574148
C       -2.34238947      -6.50583774      -1.86027044
C       -2.01325312      -6.17835930      -0.54519657
C       -1.93142335      -7.17036395       0.44389354
C       -2.20045651      -8.50141665       0.08732442
C       -1.63481116      -6.81039216       1.88069540
N       -0.33610859      -6.16196514       2.05280918
N       -0.31488420      -4.81577557       1.95532927
C        0.97727453      -4.46853591       2.04170274
C        1.35063543      -3.05552590       1.87508862
C        2.46147070      -2.48888669       2.51472667
C        2.79041653      -1.14201194       2.32221475
C        2.00083132      -0.33692802       1.50402885
C        0.88213846      -0.88213846       0.88213846
C        0.55767456      -2.22709028       1.06043020
C        1.77261978      -5.62974969       2.27081444
Cl       3.47061729      -5.67718447       2.44928275
C        0.90345180      -6.71714704       2.30539214
C        1.19117887      -8.14790220       2.50162299
C        2.26118389      -8.75502728       1.82390286
C        2.58955445     -10.09722695       2.03976294
C        1.82780773     -10.86878643       2.91163461
C        0.75863433     -10.28290606       3.58210870
Br      -0.30004011     -11.32928261       4.74882885
C        0.45765982      -8.92900183       3.40468126
H       -3.60515278     -11.77064213      -4.31865637
H       -4.29812444     -12.12012642      -2.72243300
H       -2.54967443     -12.41156961      -3.04437008
H       -2.87304346      -8.06122133      -3.23423913
H       -2.40073819      -5.72457969      -2.61474650
H       -1.82719704      -5.13505287      -0.29465635
H       -2.16162788      -9.28750461       0.84118979
H       -1.68603961      -7.68481788       2.52926515
H       -2.40119686      -6.11556423       2.24756014
H        3.08225304      -3.07130025       3.18912896
H        3.66053844      -0.72088340       2.82036086
H        2.25938243       0.70930224       1.36597606
H       -0.32130892      -2.63690247       0.56683141
H        2.86740353      -8.18574793       1.12211414
H        3.44025784     -10.53674205       1.52522360
H        2.07722770     -11.91569193       3.06452924
H       -0.34040640      -8.48949281       3.99593094
