173
Properties=species:S:1:pos:R:3 pbc="F F F"
C        0.00000000       0.00000000       0.00000000
C        2.66413941      -0.62203950      -6.49343149
O        2.97821426       0.43242081      -5.58836487
C        4.18944131       0.34594429      -4.94853819
C        4.90077068      -0.84492191      -4.76998543
C        6.13025516      -0.83823743      -4.10740722
C        6.65251291       0.35227988      -3.61118742
C        5.94840167       1.54382812      -3.77854976
C        4.71124180       1.55225948      -4.43986478
N        4.00209728       2.78140076      -4.73386483
S        3.48131375       3.67094577      -3.39942531
O        4.60790561       4.00235163      -2.54752756
O        2.56142003       4.71066497      -3.80786967
C        2.48490960       2.50708251      -2.47120609
C        3.05718903       1.78655417      -1.41640244
C        2.25200294       0.96307399      -0.62717758
C        0.88202314       0.88202314      -0.88202314
C        0.30789364       1.61375470      -1.92211344
C        1.10949439       2.43284445      -2.72001170
S        4.72784418       3.72354324      -5.93987683
O        3.85810392       4.80986774      -6.33785114
O        6.11227217       3.98934637      -5.59816197
C        4.76764349       2.62561353      -7.35800818
C        5.91797226       1.87371158      -7.62707806
C        5.95748599       1.05641365      -8.75834041
C        4.86265491       1.01696910      -9.62305983
Br       4.92218392      -0.08548136     -11.15736735
C        3.72613722       1.78685008      -9.36976926
C        3.67656981       2.59791950      -8.23431978
H        1.76329240      -0.33232136      -7.04273980
H        2.44207666      -1.54948470      -5.95679442
H        3.46686839      -0.77259587      -7.22315936
H        4.52528610      -1.79636634      -5.13378852
H        6.68444427      -1.76627495      -3.98155716
H        7.61542644       0.35800725      -3.10433546
H        6.39707904       2.46508314      -3.40903118
H        4.11749462       1.87451483      -1.18681223
H        2.69550214       0.40623218       0.19489496
H       -0.76312669       1.56887860      -2.10552025
H        0.65265066       3.02603014      -3.50932502
H        6.78203287       1.91692227      -6.96713423
H        6.84722652       0.46561918      -8.96306779
H        2.88092328       1.77024102     -10.05368523
H        2.79554929       3.20879967      -8.04646396
C       -6.14505918       0.92965135      -3.32012358
O       -5.45232848      -0.31230104      -3.23437041
C       -5.93802968      -1.21966271      -2.32623140
C       -6.72448741      -0.88089827      -1.22044853
C       -7.17799896      -1.87308710      -0.34833888
C       -6.84267187      -3.20567226      -0.56763608
C       -6.05410475      -3.55313727      -1.66353751
C       -5.58936383      -2.56726416      -2.54673808
N       -4.86384819      -2.89617573      -3.75733897
S       -3.36729374      -3.64257368      -3.54181741
O       -3.52213918      -4.86293116      -2.77271445
O       -2.62701985      -3.66797765      -4.78495717
C       -2.46899963      -2.50513421      -2.48906436
C       -2.45398562      -2.70273743      -1.10342259
C       -1.66483302      -1.87932105      -0.29810043
C       -0.88202314      -0.88202314      -0.88202314
C       -0.88282602      -0.69606661      -2.26486916
C       -1.67631510      -1.51126306      -3.07477239
S       -5.81773023      -3.61568811      -4.95784590
O       -5.09093077      -3.70884029      -6.20605174
O       -6.49524556      -4.78146885      -4.42306610
C       -7.09550675      -2.39382545      -5.26193301
C       -8.32636022      -2.49117591      -4.60122577
C       -9.33173965      -1.56272369      -4.87777671
C       -9.11054109      -0.56441638      -5.82772637
Br     -10.47631415       0.68684957      -6.20460534
C       -7.89334557      -0.48317179      -6.50623920
C       -6.88030725      -1.40232995      -6.22617189
H       -5.75493070       1.46945345      -4.18823360
H       -5.96048264       1.54622801      -2.43513175
H       -7.21833150       0.77685885      -3.47595922
H       -7.00164229       0.14705631      -1.00812230
H       -7.79908059      -1.60458834       0.50394244
H       -7.20522848      -3.97908514       0.10654447
H       -5.83515284      -4.60734227      -1.82869826
H       -3.03127884      -3.50317406      -0.64436878
H       -1.64979279      -2.03508667       0.77804011
H       -0.25482915       0.06527684      -2.72171986
H       -1.64940987      -1.38372988      -4.15486608
H       -8.51098323      -3.28013693      -3.87496920
H      -10.28470577      -1.63262210      -4.35858562
H       -7.72819806       0.28315811      -7.25980957
H       -5.93738219      -1.34648594      -6.76694478
C       -0.03615151       1.64890274       6.85047716
O       -1.04757687       2.02935749       5.92206557
C       -2.21432278       1.30753265       5.96206836
C       -2.32191688       0.01603228       6.48788503
C       -3.55315461      -0.64331393       6.48958426
C       -4.68064100      -0.02383317       5.95917238
C       -4.58272430       1.26101028       5.42704496
C       -3.35230005       1.93474199       5.41632402
N       -3.22988070       3.31033262       4.97714956
S       -3.59188673       3.60325957       3.35653854
O       -4.94055915       3.16075322       3.05647242
O       -3.17239046       4.93415483       2.97340939
C       -2.49905782       2.49728742       2.46685297
C       -2.96293840       1.24265739       2.05454985
C       -2.14470431       0.42937937       1.26817082
C       -0.88202314       0.88202314       0.88202314
C       -0.42603806       2.13990515       1.27781857
C       -1.23669951       2.95450625       2.07114478
S       -3.91236513       4.43659300       6.04230612
O       -3.55931062       5.78704467       5.65946751
O       -5.29700074       4.09526089       6.30751887
C       -3.02678628       4.14884851       7.57563041
C       -3.57081697       3.30024638       8.54769855
C       -2.89756612       3.11757251       9.75710141
C       -1.70478370       3.80172487       9.99617527
Br      -0.79940241       3.55728156      11.63738594
C       -1.17588153       4.66853490       9.03834013
C       -1.83908863       4.84703996       7.82268050
H        0.75061956       2.40850279       6.81582761
H        0.41434479       0.69116293       6.57256824
H       -0.42616669       1.61781895       7.87344624
H       -1.46570786      -0.50634960       6.90335002
H       -3.63295199      -1.64367500       6.91044949
H       -5.64158732      -0.53431157       5.97049339
H       -5.48833476       1.73381884       5.04903975
H       -3.96124799       0.89878150       2.31879220
H       -2.50626983      -0.54373271       0.94430223
H        0.54800233       2.50208833       0.95718617
H       -0.89015925       3.94715702       2.35068955
H       -4.51103811       2.78069965       8.37435160
H       -3.31515458       2.45191754      10.50884136
H       -0.25652611       5.21577575       9.23254767
H       -1.43299039       5.53467318       7.08314935
C       -0.48316396      -6.60068028       2.41801509
O        0.52744943      -5.67187812       2.79967239
C        0.37730697      -5.07844203       4.02817480
C       -0.84263130      -4.96569992       4.70276558
C       -0.90114770      -4.34701215       5.95356049
C        0.25267993      -3.82927072       6.53402956
C        1.47265943      -3.93106696       5.86705315
C        1.54649025      -4.54770813       4.60916768
N        2.80865120      -4.77453319       3.93417850
S        3.66783264      -3.39306942       3.49078278
O        3.93047881      -2.57061183       4.65669416
O        4.75200449      -3.73322242       2.59472776
C        2.50657303      -2.47046787       2.48615730
C        1.73026475      -1.46161925       3.06826164
C        0.90736894      -0.67299787       2.26188769
C        0.88202314      -0.88202314       0.88202314
C        1.66906572      -1.87572959       0.29896648
C        2.48800400      -2.67303705       1.10130949
S        3.76745656      -5.97260338       4.65120430
O        4.89610184      -6.30247990       3.80724106
O        3.97378012      -5.67103409       6.05496629
C        2.71946016      -7.42780290       4.60400214
C        1.93879003      -7.76267429       5.71729759
C        1.16098999      -8.92178775       5.68946232
C        1.18932534      -9.74823370       4.56512480
Br       0.14023571     -11.32031896       4.53351525
C        1.98803884      -9.42899740       3.46572031
C        2.75981250      -8.26555958       3.48343701
H       -0.14377738      -7.10772588       1.50976234
H       -1.42084660      -6.08842896       2.18180402
H       -0.63514798      -7.36294133       3.18963853
H       -1.76733447      -5.34821841       4.28182434
H       -1.85136747      -4.27242694       6.47866702
H        0.20776764      -3.35676184       7.51323966
H        2.36451689      -3.54644640       6.36023007
H        1.77394188      -1.26667208       4.13820771
H        0.30713431       0.11350798       2.71321301
H        1.66715876      -2.02270486      -0.77859145
H        3.12383875      -3.42511582       0.63905126
H        1.92928619      -7.13249839       6.60430479
H        0.54783596      -9.17772837       6.55034916
H        2.02431560     -10.08287534       2.59765859
H        3.39332581      -8.02609388       2.63139322
