181
Properties=species:S:1:pos:R:3 pbc="F F F"
C        0.00000000       0.00000000       0.00000000
C        2.66413941      -0.62203950      -6.49343149
O        2.97821426       0.43242081      -5.58836487
C        4.18944131       0.34594429      -4.94853819
C        4.90077068      -0.84492191      -4.76998543
C        6.13025516      -0.83823743      -4.10740722
C        6.65251291       0.35227988      -3.61118742
C        5.94840167       1.54382812      -3.77854976
C        4.71124180       1.55225948      -4.43986478
N        4.00209728       2.78140076      -4.73386483
S        3.48131375       3.67094577      -3.39942531
O        4.60790561       4.00235163      -2.54752756
O        2.56142003       4.71066497      -3.80786967
C        2.48490960       2.50708251      -2.47120609
C        3.05718903       1.78655417      -1.41640244
C        2.25200294       0.96307399      -0.62717758
C        0.88202314       0.88202314      -0.88202314
C        0.30789364       1.61375470      -1.92211344
C        1.10949439       2.43284445      -2.72001170
S        4.72784418       3.72354324      -5.93987683
O        3.85810392       4.80986774      -6.33785114
O        6.11227217       3.98934637      -5.59816197
C        4.76764349       2.62561353      -7.35800818
C        5.91797226       1.87371158      -7.62707806
C        5.95748599       1.05641365      -8.75834041
C        4.86265491       1.01696910      -9.62305983
C        3.72613722       1.78685008      -9.36976926
C        3.67656981       2.59791950      -8.23431978
H        1.76329240      -0.33232136      -7.04273980
H        2.44207666      -1.54948470      -5.95679442
H        3.46686839      -0.77259587      -7.22315936
H        4.52528610      -1.79636634      -5.13378852
H        6.68444427      -1.76627495      -3.98155716
H        7.61542644       0.35800725      -3.10433546
H        6.39707904       2.46508314      -3.40903118
H        4.11749462       1.87451483      -1.18681223
H        2.69550214       0.40623218       0.19489496
H       -0.76312669       1.56887860      -2.10552025
H        0.65265066       3.02603014      -3.50932502
H        6.78203287       1.91692227      -6.96713423
H        6.84722652       0.46561918      -8.96306779
H        2.88092328       1.77024102     -10.05368523
H        2.79554929       3.20879967      -8.04646396
C        4.90800438       0.17711737     -10.79190221
C        4.94598455      -0.52625845     -11.77080771
Br       5.00739529      -1.66355766     -13.35361509
C       -0.78101983      -6.95727264      -0.79723894
O       -1.41157056      -5.97425316      -1.61317621
C       -0.86189416      -5.76816394      -2.85386570
C        0.45641391      -6.08954191      -3.19270620
C        0.93091363      -5.84668107      -4.48365751
C        0.09823827      -5.27400066      -5.44021782
C       -1.21567082      -4.94429373      -5.11081499
C       -1.70552785      -5.18021809      -3.81762012
N       -3.09368029      -4.95762183      -3.46606076
S       -3.63204929      -3.36229684      -3.55733870
O       -3.42427157      -2.83907472      -4.89443850
O       -4.92755083      -3.22505547      -2.92734837
C       -2.50128573      -2.46717240      -2.49474007
C       -1.38493635      -1.82830384      -3.04690545
C       -0.56764685      -1.04206024      -2.23254742
C       -0.88202314      -0.88202314      -0.88202314
C       -2.00471254      -1.50416100      -0.33488825
C       -2.82137944      -2.29834824      -1.14262286
S       -4.16496489      -6.07852260      -4.14777675
O       -5.48899951      -5.93613662      -3.58068667
O       -3.99200773      -6.12041552      -5.58735725
C       -3.56869748      -7.65332691      -3.52924080
C       -2.69196451      -8.42169310      -4.30510429
C       -2.26871811      -9.66694034      -3.83658160
C       -2.74334320     -10.14507872      -2.61426193
C       -3.63833999      -9.39139506      -1.85302151
C       -4.05684734      -8.14065161      -2.31131013
H       -1.42066160      -7.12713500       0.07408576
H        0.18902106      -6.60487402      -0.43353341
H       -0.67940484      -7.90975425      -1.32827279
H        1.14133847      -6.52956480      -2.47448194
H        1.95421114      -6.10939009      -4.74454754
H        0.46575318      -5.09485357      -6.44866876
H       -1.85424105      -4.52800164      -5.88895067
H       -1.15518863      -1.91647349      -4.10715956
H        0.29746037      -0.54231747      -2.66198225
H       -2.26280858      -1.36018612       0.71172254
H       -3.71325635      -2.75545104      -0.71929843
H       -2.33537013      -8.06241525      -5.26830398
H       -1.58103315     -10.26021174      -4.43466860
H       -4.02250852      -9.77249533      -0.90984568
H       -4.76623680      -7.56105349      -1.72352262
C       -2.30925965     -11.43201278      -2.13575154
C       -1.94571468     -12.50982005      -1.73499908
Br      -1.35789321     -14.25254326      -1.08701626
C       -2.32378613       6.63831888      -0.42657360
O       -2.51373558       5.78609206       0.69917230
C       -1.69555083       6.01017997       1.77819299
C       -0.45953939       6.66060441       1.70569041
C        0.30655704       6.84753907       2.85844292
C       -0.14981317       6.37936739       4.08679964
C       -1.37770212       5.72428299       4.16879444
C       -2.15706065       5.52717211       3.01913330
N       -3.48650818       4.95334959       3.07750512
S       -3.57932105       3.35770389       3.61465989
O       -2.98668213       3.23767758       4.93342509
O       -4.89746075       2.81342407       3.36906985
C       -2.49404293       2.46731806       2.50183721
C       -1.16682797       2.22112353       2.87219414
C       -0.35672910       1.43399002       2.05153538
C       -0.88202314       0.88202314       0.88202314
C       -2.21006259       1.11236576       0.52133343
C       -3.02287130       1.90549283       1.33398641
S       -4.64735096       5.97414255       3.76977073
O       -5.97878881       5.43508188       3.59195212
O       -4.20887318       6.40843327       5.08247405
C       -4.59893393       7.42982734       2.72250393
C       -3.80675391       8.52581744       3.08619054
C       -3.81011335       9.67247057       2.28965614
C       -4.62163110       9.72566295       1.15538979
C       -5.43189942       8.64363135       0.80722578
C       -5.42469948       7.49014617       1.59396344
H       -3.14502497       6.45454034      -1.12585448
H       -1.38828637       6.40538982      -0.94428981
H       -2.36075080       7.69403033      -0.13734925
H       -0.06279413       7.03345811       0.76645604
H        1.26223715       7.36443585       2.79752778
H        0.44300738       6.53478682       4.98598971
H       -1.72459430       5.39809406       5.14850499
H       -0.76122395       2.61556669       3.80203104
H        0.67325695       1.23917578       2.34092052
H       -2.62586221       0.66283774      -0.37742778
H       -4.06634387       2.05612596       1.06553600
H       -3.18815446       8.49703760       3.98089731
H       -3.18846794      10.52059045       2.56685510
H       -6.07812835       8.69264452      -0.06592334
H       -6.06829741       6.65326480       1.32925071
C       -4.62713247      10.91146855       0.33842294
C       -4.63173986      11.90458074      -0.34578679
Br      -4.63918963      13.51035915      -1.45209605
C        5.56014874       1.18696000       4.16234267
O        5.04610669      -0.10418935       3.84870389
C        5.74348229      -0.82712774       2.91331377
C        6.60022475      -0.26293068       1.96267877
C        7.27265247      -1.07770060       1.04907187
C        7.08782755      -2.45670672       1.07144594
C        6.23123761      -3.02845176       2.01109017
C        5.54729776      -2.22259394       2.93347437
N        4.73747891      -2.78358838       3.99629559
S        3.38274085      -3.66084659       3.50809739
O        3.77840673      -4.74740866       2.63196941
O        2.51588832      -3.92862251       4.63544384
C        2.47134919      -2.50716913       2.48467988
C        2.63865207      -2.52638770       1.09510586
C        1.84694827      -1.70140700       0.29389923
C        0.88202314      -0.88202314       0.88202314
C        0.70252354      -0.87553113       2.26570711
C        1.49693056      -1.69250760       3.07291238
S        5.63347884      -3.53807907       5.21970633
O        4.78799237      -3.87173084       6.34609958
O        6.51063778      -4.54167232       4.64747040
C        6.70183095      -2.22842632       5.82100793
C        8.00183334      -2.10055273       5.31637583
C        8.84242426      -1.10731001       5.82250577
C        8.38930487      -0.27017134       6.84320764
C        7.10280400      -0.41464520       7.36530736
C        6.25387624      -1.39914759       6.85578526
H        5.00847232       1.56367316       5.02891168
H        5.39960650       1.88675320       3.33653307
H        6.61955643       1.13795959       4.43583504
H        6.76589593       0.80844395       1.90525630
H        7.94674110      -0.63386979       0.31911559
H        7.62025959      -3.09151765       0.36599191
H        6.13160939      -4.11307271       2.02651126
H        3.36177380      -3.19102944       0.62601844
H        1.97384577      -1.71898128      -0.78598770
H       -0.06530890      -0.25486537       2.72171570
H        1.33186635      -1.70800403       4.14813544
H        8.36682749      -2.76416327       4.53509861
H        9.84909369      -1.00193489       5.42488490
H        6.75680172       0.22537828       8.17342609
H        5.25645486      -1.51999387       7.27436418
C        9.26009134       0.75009505       7.36702767
C        9.98937502       1.60456814       7.80572694
Br      11.16856504       2.98617887       8.51506656
