61
Properties=species:S:1:pos:R:3 pbc="F F F"
C        0.00000000       0.00000000       0.00000000
F        0.63037749       2.54531357      -4.10039357
C        1.13222527       2.13102885      -2.92934064
C        0.36397691       1.31616231      -2.10990046
C        0.88868278       0.88868278      -0.88868278
C        2.19490506       1.23707783      -0.49029875
N        2.66491645       0.91917239       0.80099898
C        2.92354962       2.10283913      -1.33049470
C        2.40523068       2.53410752      -2.55309027
H       -0.63450019       1.03432630      -2.42817996
H        3.67910060       0.93412475       0.87869597
H        2.24484458       0.07832715       1.19001090
H        2.97126264       3.18567660      -3.21104899
C        4.24154633       2.55383239      -0.96568002
C        5.34536857       2.93153925      -0.66014772
Br       7.13015578       3.54225929      -0.16612783
F       -1.18626248      -4.41221476      -1.67760738
C       -1.42599396      -3.09412887      -1.67247193
C       -0.63425846      -2.26151368      -0.89426754
C       -0.88868278      -0.88868278      -0.88868278
C       -1.90757126      -0.32912013      -1.68559025
N       -2.24861268       1.03452272      -1.56899991
C       -2.71696708      -1.21461315      -2.42530322
C       -2.46826555      -2.58844940      -2.43571352
H        0.16161261      -2.69344413      -0.29617455
H       -2.75775428       1.39552107      -2.37229618
H       -1.46906901       1.62517874      -1.28927056
H       -3.07799161      -3.27091812      -3.01907850
C       -3.81669847      -0.72736351      -3.21699676
C       -4.73772350      -0.31929193      -3.88004010
Br      -6.22694309       0.34052529      -4.95212511
F       -3.90668654       0.51196658       2.85743151
C       -2.82841095       1.07156765       2.29261616
C       -2.01341295       0.30333072       1.47329602
C       -0.88868278       0.88868278       0.88868278
C       -0.58693340       2.25145400       1.08389423
N        0.62192087       2.79895927       0.60605147
C       -1.41438436       2.98343076       1.95906834
C       -2.54075770       2.40465226       2.54701851
H       -2.25905087      -0.74102556       1.30998076
H        0.60444683       3.81292408       0.52605214
H        0.97489035       2.33645243      -0.22840125
H       -3.19058217       2.97083596       3.20657010
C       -1.13819038       4.36467751       2.25819085
C       -0.90687792       5.52147167       2.50870595
Br      -0.53286523       7.39190999       2.91376768
F        3.44240104      -3.41526337       0.41842021
C        2.59511503      -2.57291761       1.02456212
C        1.76835078      -1.76773443       0.25395447
C        0.88868278      -0.88868278       0.88868278
C        0.79764077      -0.83073258       2.29390829
N        0.01099717       0.15438980       2.92648250
C        1.68674248      -1.63183425       3.03830672
C        2.56889228      -2.51321525       2.41032094
H        1.82765861      -1.82829191      -0.82794445
H       -0.22746248      -0.07311125       3.88888062
H       -0.78995016       0.45060404       2.37371503
H        3.24169377      -3.14516030       2.98113416
C        1.69819903      -1.58534909       4.47751062
C        1.70779388      -1.54641777       5.68284389
Br       1.72330795      -1.48346911       7.63176584
