74
Properties=species:S:1:pos:R:3 pbc="F F F"
F        1.54028152       3.45521759      -5.01029759
C        2.04212930       3.04093287      -3.83924467
C        1.27388093       2.22606634      -3.01980448
C        1.79858681       1.79858681      -1.79858681
C        3.10480909       2.14698186      -1.40020277
N        3.57482048       1.82907641      -0.10890505
C        3.83345364       3.01274316      -2.24039873
Br       5.57460567       3.60853207      -1.75845683
C        3.31513471       3.44401154      -3.46299430
H        0.27540383       1.94423032      -3.33808398
H        4.58900463       1.84402878      -0.03120806
H        3.15474861       0.98823117       0.28010688
H        3.88116667       4.09558062      -4.12095301
F       -5.18856770      -3.07569595      -1.74153305
C       -3.93598763      -2.83497547      -2.15134374
C       -3.10242780      -2.05016844      -1.36715551
C       -1.79858681      -1.79858681      -1.79858681
C       -1.30191017      -2.35623830      -2.99384524
N       -0.03526524      -1.98584919      -3.49168751
C       -2.19510033      -3.10917954      -3.78231567
Br      -1.64990179      -3.83963638      -5.45205642
C       -3.50016582      -3.36487659      -3.35709814
H       -3.48209086      -1.63765215      -0.43797514
H        0.34665967      -2.64847649      -4.16242464
H        0.62608057      -1.72477924      -2.76417423
H       -4.18462023      -3.96003862      -3.95304145
F       -1.84400913       2.91763975       5.24414781
C       -2.19842906       2.76235241       3.96152537
C       -1.42830171       1.95585829       3.13559176
C       -1.79858681       1.79858681       1.79858681
C       -2.95803368       2.41147304       1.28248700
N       -3.24780643       2.36200443      -0.09700892
C       -3.68573968       3.25813560       2.14272025
Br      -5.22076795       4.19636914       1.52445749
C       -3.32137954       3.41996795       3.48079306
H       -0.54649768       1.47027005       3.54095040
H       -4.22260776       2.55565175      -0.31401805
H       -2.89248333       1.52687893      -0.55648936
H       -3.89052737       4.05645857       4.15071437
F        5.12985034      -3.21620411       1.65974225
C        3.90587029      -2.90773291       2.10870364
C        3.07241644      -2.12088292       1.32645240
C        1.79858681      -1.79858681       1.79858681
C        1.33004513      -2.28724314       3.03470544
N        0.10082246      -1.84523538       3.56674411
C        2.22447500      -3.04457835       3.81754218
Br       1.72026571      -3.68488492       5.53644395
C        3.49962078      -3.37078677       3.35173300
H        3.42938371      -1.76170113       0.36663330
H       -0.27904483      -2.46429577       4.27899052
H       -0.57917431      -1.58613587       2.85591135
H        4.18396034      -3.96961446       3.94412550
C       -0.00445707       0.01189536      -1.78238275
H       -0.66409135       0.67374010      -2.43557963
H        0.65740317      -0.63156657      -2.45157240
C       -0.90989263      -0.90692880      -0.91072765
C        0.90977584       0.90977584      -0.90977584
C       -0.00465871       1.77757030       0.00794375
H       -0.66225468       2.44313916      -0.64384735
H        0.64322798       2.43503045       0.67728295
C       -1.78241447       0.00034974      -0.00472694
H       -2.45427497      -0.65498947       0.64260836
H       -2.43311707       0.67328779      -0.65473579
C       -0.91132561       0.90220522       0.91563759
C       -0.01476271      -0.02253852       1.78660255
H       -0.67934791      -0.69751639       2.42135241
H        0.63392994       0.61504881       2.47327442
C        0.01484550      -1.77751727      -0.01636693
H        0.67870853      -2.42144646      -0.68295456
H       -0.62264859      -2.45592969       0.64226336
C        1.78714474       0.01002794       0.00389507
H        2.44202412       0.67113390       0.66197326
H        2.45385902      -0.65136977      -0.64189061
C        0.91606151      -0.90478549       0.90901405
