194
Properties=species:S:1:pos:R:3 pbc="F F F"
C        1.79121252       1.79121252      -1.79121252
C        2.55354634       1.21684100      -2.80290740
C        3.35869567       2.02663062      -3.61343755
C        3.42221779       3.42146789      -3.42739215
C        2.63103814       3.96932649      -2.39815588
C        1.82415527       3.16572639      -1.58475572
C        4.26028669       4.29214677      -4.28059647
C        5.42448470       3.86612810      -4.88878144
C        6.12375793       4.76398843      -5.69691366
C        7.37451328       4.24279376      -6.29789428
O        7.31423116       3.19047242      -6.92180205
N        8.50169073       4.98851260      -6.02476402
C        9.82733465       4.74930079      -6.46368270
C       10.17748645       3.68540551      -7.30140855
C       11.50736020       3.50634309      -7.69272092
Cl      11.92559341       2.19084215      -8.72168453
C       12.50306232       4.38028311      -7.26128012
C       12.16844765       5.44953135      -6.43228158
C       10.84011342       5.63252594      -6.03884754
Cl      10.47147852       6.98090526      -5.01666605
C        5.64293268       6.07189408      -5.92710442
C        6.24380238       7.00843218      -6.80594207
C        5.70943142       8.28224470      -6.96243487
Br       6.53427500       9.51303625      -8.13374094
C        4.57017119       8.64687191      -6.26262951
C        3.95099878       7.72411308      -5.40397058
C        2.69157874       8.12812003      -4.68031273
C        4.46631985       6.43081109      -5.23897842
N        3.81831728       5.56396440      -4.43733475
H        2.52515669       0.14438837      -2.97818755
H        3.92029084       1.54554097      -4.41191706
H        2.63894236       5.04482919      -2.22415296
H        1.22732154       3.62601118      -0.80202274
H        5.80599198       2.86051866      -4.74197811
H        8.39591992       5.79446351      -5.41293146
H        9.43664552       2.98084875      -7.66558628
H       13.53591176       4.23428929      -7.56833363
H       12.94417123       6.13396949      -6.09818752
H        7.12037621       6.73850528      -7.39101860
H        4.14859368       9.64186713      -6.38781028
H        2.48047962       9.19517499      -4.80788845
H        2.79008660       7.94349677      -3.60545072
H        1.83669921       7.56638559      -5.07037269
C       -1.79121252      -1.79121252      -1.79121252
C       -2.49905289      -1.22699682      -2.84724504
C       -3.30418285      -2.03696693      -3.65761406
C       -3.42201914      -3.42164747      -3.42741121
C       -2.68503613      -3.95973801      -2.35374637
C       -1.87848422      -3.15590902      -1.54024414
C       -4.26070907      -4.29281147      -4.27950939
C       -5.38854475      -3.84942437      -4.94142512
C       -6.09104277      -4.75081534      -5.74280191
C       -7.30228909      -4.20922359      -6.40368864
O       -7.18490134      -3.18167878      -7.05992550
N       -8.46304014      -4.90701741      -6.14490980
C       -9.76423839      -4.63898539      -6.63709435
C      -10.04927276      -3.59356287      -7.52146488
C      -11.35836279      -3.38382531      -7.96423610
Cl     -11.69632532      -2.09141990      -9.05037487
C      -12.39750409      -4.20861365      -7.53850780
C      -12.12788244      -5.25916568      -6.66321245
C      -10.82053680      -5.47270620      -6.21824390
Cl     -10.53302449      -6.79653047      -5.13949487
C       -5.64826164      -6.08121392      -5.91245562
C       -6.25144515      -7.02696529      -6.77976620
C       -5.75646295      -8.32255224      -6.87509580
Br      -6.58376106      -9.56484166      -8.03244946
C       -4.65447458      -8.70062172      -6.12457630
C       -4.03281175      -7.76994171      -5.27632898
C       -2.81295874      -8.19053313      -4.49651963
C       -4.50837665      -6.45523020      -5.17250251
N       -3.85794466      -5.58332952      -4.37834225
H       -2.42780278      -0.16278404      -3.05714579
H       -3.82185631      -1.56526273      -4.49062983
H       -2.73588716      -5.02772535      -2.14431200
H       -1.32436861      -3.60855267      -0.72243419
H       -5.73977975      -2.82716885      -4.84154016
H       -8.40565410      -5.69443690      -5.50322388
H       -9.27279434      -2.92713059      -7.88315563
H      -13.41386781      -4.03891236      -7.88575451
H      -12.93750403      -5.90537709      -6.33344711
H       -7.09815142      -6.74829386      -7.40345481
H       -4.26357087      -9.71286618      -6.20183404
H       -2.63469937      -9.26781010      -4.58103360
H       -2.94086010      -7.96570956      -3.43246442
H       -1.92664225      -7.67145938      -4.87535586
C       -1.79121252       1.79121252       1.79121252
C       -1.78347221       3.17131894       1.61850360
C       -2.59527683       3.97866514       2.42482189
C       -3.42499517       3.42606342       3.42001924
C       -3.41271748       2.02419228       3.56161075
C       -2.60396153       1.21168822       2.75898762
C       -4.29537728       4.26380877       4.27384388
C       -3.99989202       5.57032152       4.60918069
C       -4.90658333       6.27922276       5.39885393
C       -4.51157536       7.66755381       5.73607215
O       -4.19796583       8.41265607       4.81588373
N       -4.48095675       7.94832533       7.08568527
C       -4.15371990       9.17799950       7.70859874
C       -3.83190054      10.33720341       6.99519656
C       -3.51471404      11.51648667       7.67522349
Cl      -3.11729720      12.93566582       6.78515707
C       -3.51600753      11.56078139       9.06783663
C       -3.84194466      10.41576794       9.79254797
C       -4.15999966       9.23468402       9.11680321
Cl      -4.56809947       7.84090451      10.06004586
C       -6.12222482       5.69780603       5.82190033
C       -7.13359128       6.38025773       6.54432763
C       -8.29636026       5.72482098       6.93292975
Br      -9.62421056       6.65548336       7.90135827
C       -8.48247865       4.39094059       6.60625337
C       -7.49963845       3.70626414       5.87317985
C       -7.73787474       2.26611179       5.49602496
C       -6.32423985       4.35013000       5.46173950
N       -5.42619227       3.66811049       4.72531367
H       -1.15927346       3.63164041       0.85681874
H       -2.58319450       5.05159798       2.24295639
H       -4.04666181       1.55068521       4.31057749
H       -2.62333922       0.13415324       2.89786300
H       -3.08053460       6.04586551       4.28208864
H       -4.68624493       7.18767888       7.72939107
H       -3.82071009      10.35230870       5.91006177
H       -3.26685282      12.48115914       9.59052272
H       -3.84673145      10.45049812      10.87909865
H       -7.02749831       7.43545236       6.78694942
H       -9.39399848       3.87835360       6.90591900
H       -8.63101917       1.86540582       5.98711807
H       -6.89159552       1.64324583       5.80419273
H       -7.88036672       2.17901876       4.41407201
C        1.79121252      -1.79121252       1.79121252
C        1.77951939      -3.17172976       1.62204560
C        2.59132136      -3.97908994       2.42835255
C        3.42497976      -3.42607608       3.42002199
C        3.41663101      -2.02382238       3.55806712
C        2.60790025      -1.21130274       2.75543439
C        4.29540268      -4.26386377       4.27376348
C        3.99744998      -5.56876075       4.61318351
C        4.90434608      -6.27796107       5.40235287
C        4.50666790      -7.66441711       5.74411632
O        4.18881644      -8.41105617       4.82663301
N        4.47877833      -7.94167407       7.09451495
C        4.15000352      -9.16892009       7.72139452
C        3.82341603     -10.32911092       7.01177355
C        3.50496546     -11.50584667       7.69561208
Cl       3.10166864     -12.92626777       6.81018368
C        3.50969930     -11.54660035       9.08832589
C        3.84039727     -10.40058161       9.80928169
C        4.15973185      -9.22203655       9.12971850
Cl       4.57378260      -7.82690685      10.06836038
C        6.12253868      -5.69857308       5.82081942
C        7.13400499      -6.38176224       6.54240941
C        8.29942591      -5.72830746       6.92637762
Br       9.62736999      -6.65988711       7.89379509
C        8.48810420      -4.39574194       6.59582646
C        7.50514245      -3.71042794       5.86351206
C        7.74607996      -2.27185258       5.48207895
C        6.32706317      -4.35233779       5.45670839
N        5.42887818      -3.66990557       4.72083268
H        1.15220988      -3.63239407       0.86312866
H        2.57604460      -5.05244782       2.24925645
H        4.05368715      -1.55002978       4.30420758
H        2.63037434      -0.13347077       2.89151035
H        3.07605379      -6.04278843       4.28964654
H        4.68764329      -7.17991816       7.73575343
H        3.80941862     -10.34694911       5.92671282
H        3.25953752     -12.46500625       9.61399090
H        3.84786786     -10.43255863      10.89590174
H        7.02584638      -7.43606188       6.78799183
H        9.40168715      -3.88472131       6.89186263
H        8.64149131      -1.87217819       5.96987356
H        6.90217762      -1.64604723       5.79080923
H        7.88603218      -2.18787712       4.39954818
C       -0.00445707       0.01189536      -1.78238275
H       -0.66409135       0.67374010      -2.43557963
H        0.65740317      -0.63156657      -2.45157240
C       -0.90989263      -0.90692880      -0.91072765
C        0.90977584       0.90977584      -0.90977584
C       -0.00465871       1.77757030       0.00794375
H       -0.66225468       2.44313916      -0.64384735
H        0.64322798       2.43503045       0.67728295
C       -1.78241447       0.00034974      -0.00472694
H       -2.45427497      -0.65498947       0.64260836
H       -2.43311707       0.67328779      -0.65473579
C       -0.91132561       0.90220522       0.91563759
C       -0.01476271      -0.02253852       1.78660255
H       -0.67934791      -0.69751639       2.42135241
H        0.63392994       0.61504881       2.47327442
C        0.01484550      -1.77751727      -0.01636693
H        0.67870853      -2.42144646      -0.68295456
H       -0.62264859      -2.45592969       0.64226336
C        1.78714474       0.01002794       0.00389507
H        2.44202412       0.67113390       0.66197326
H        2.45385902      -0.65136977      -0.64189061
C        0.91606151      -0.90478549       0.90901405
