181
Properties=species:S:1:pos:R:3 pbc="F F F"
C        0.00000000       0.00000000       0.00000000
C        0.88130850       0.88130850      -0.88130850
C        1.64364232       0.30693698      -1.89300337
C        2.44879165       1.11672660      -2.70353353
C        2.51231376       2.51156387      -2.51748813
C        1.72113412       3.05942247      -1.48825185
C        0.91425124       2.25582237      -0.67485169
C        3.35038266       3.38224274      -3.37069245
C        4.51458068       2.95622407      -3.97887741
C        5.21385390       3.85408440      -4.78700964
C        6.46460926       3.33288974      -5.38799025
O        6.40432714       2.28056839      -6.01189802
N        7.59178670       4.07860857      -5.11486000
C        8.91743062       3.83939677      -5.55377867
C        9.26758242       2.77550149      -6.39150453
C       10.59745617       2.59643906      -6.78281689
Cl      11.01568938       1.28093813      -7.81178051
C       11.59315829       3.47037908      -6.35137609
C       11.25854362       4.53962732      -5.52237755
C        9.93020940       4.72262191      -5.12894351
Cl       9.56157449       6.07100124      -4.10676203
C        4.73302866       5.16199006      -5.01720039
C        5.33389836       6.09852816      -5.89603805
C        4.79952739       7.37234068      -6.05253084
C        3.66026716       7.73696788      -5.35272549
C        3.04109475       6.81420906      -4.49406656
C        1.78167471       7.21821601      -3.77040871
C        3.55641583       5.52090707      -4.32907439
N        2.90841325       4.65406038      -3.52743073
H        1.61525267      -0.76551565      -2.06828352
H        3.01038682       0.63563694      -3.50201304
H        1.72903834       4.13492516      -1.31424894
H        0.31741751       2.71610716       0.10788128
H        4.89608796       1.95061463      -3.83207409
H        7.48601590       4.88455949      -4.50302743
H        8.52674150       2.07094473      -6.75568226
H       12.62600773       3.32438526      -6.65842961
H       12.03426720       5.22406546      -5.18828349
H        6.21047219       5.82860126      -6.48111457
H        3.23868965       8.73196311      -5.47790625
H        1.57057560       8.28527096      -3.89798443
H        1.88018258       7.03359274      -2.69554669
H        0.92679518       6.65648157      -4.16046867
C        5.42841353       8.31073405      -6.94557066
C        5.95510568       9.09663849      -7.69349150
Br       6.80672232      10.36737951      -8.90281625
C       -0.88130850      -0.88130850      -0.88130850
C       -0.87664533      -0.70585485      -2.26108250
C       -1.68250148      -1.51747900      -3.06907130
C       -2.51030718      -2.51438237      -2.51667620
C       -2.48378747      -2.66867735      -1.11634362
C       -1.68063706      -1.86105425      -0.30323400
C       -3.36044399      -3.38626524      -3.35660863
C       -3.87915063      -2.99536657      -4.57516496
C       -4.64668958      -3.90915966      -5.29909871
C       -5.18764710      -3.41152390      -6.58631825
O       -4.40186007      -2.91250406      -7.38242942
N       -6.55666117      -3.51270540      -6.71588871
C       -7.35343033      -3.13303821      -7.82413751
C       -6.82213971      -2.60647831      -9.00597042
C       -7.66818886      -2.24893289     -10.05959038
Cl      -7.00165651      -1.59890967     -11.50784184
C       -9.04797421      -2.41197140      -9.95496786
C       -9.59168531      -2.94243470      -8.78642848
C       -8.74955514      -3.30154135      -7.73067833
Cl      -9.47047429      -3.96575825      -6.30310522
C       -4.86513621      -5.22167485      -4.82540804
C       -5.55197376      -6.23357249      -5.54291831
C       -5.73320997      -7.49767328      -4.99351566
C       -5.23144237      -7.78457119      -3.73394698
C       -4.53078826      -6.79979589      -3.01878622
C       -3.96093185      -7.14343617      -1.66593140
C       -4.32697224      -5.52173216      -3.55769289
N       -3.61428497      -4.61997031      -2.85564907
H       -0.24638902       0.05042684      -2.72205836
H       -1.63254081      -1.36939989      -4.14609610
H       -3.09887438      -3.43446436      -0.64487370
H       -1.68683470      -2.01168584       0.77287715
H       -3.71116823      -1.99806987      -4.96953859
H       -7.07922872      -3.87340724      -5.92096685
H       -5.75401825      -2.46409523      -9.13525501
H       -9.70050824      -2.13037738     -10.77793698
H      -10.66784499      -3.07335195      -8.70541922
H       -5.92892239      -6.04533524      -6.54593039
H       -5.36875986      -8.77480278      -3.30499638
H       -4.30253925      -8.12648426      -1.32480748
H       -4.28089900      -6.41134612      -0.91707689
H       -2.86734570      -7.16402894      -1.71237078
C       -6.43890605      -8.50959858      -5.73621361
C       -7.02992651      -9.35708601      -6.35822315
Br      -7.98555662     -10.72740151      -7.36395996
C       -0.88130850       0.88130850       0.88130850
C       -1.61708576       1.91500326       0.31149365
C       -2.42835938       2.72045996       1.12023244
C       -2.51716056       2.51347296       2.51073224
C       -1.76392055       1.45280686       3.05208102
C       -0.95140066       0.64407650       2.24944814
C       -3.37636790       3.34916585       3.37778411
C       -3.68556915       4.66564426       3.09846876
C       -4.52968563       5.35378594       3.97147638
C       -4.79855113       6.76818033       3.61875779
O       -5.20055640       7.00912158       2.48711557
N       -4.49718112       7.67848238       4.60959177
C       -4.65353836       9.08605745       4.57101025
C       -5.19170193       9.76803126       3.47485525
C       -5.31341652      11.16020262       3.50309298
Cl      -5.97464934      11.98786135       2.14589733
C       -4.90659986      11.89063155       4.61768206
C       -4.37536034      11.22452028       5.72066788
C       -4.25212828       9.83275970       5.69688684
Cl      -3.59580279       9.04890585       7.09462912
C       -5.09324615       4.71879027       5.10018268
C       -6.02968258       5.31963891       5.97914308
C       -6.52412754       4.62384359       7.07642778
C       -6.11003901       3.32329402       7.31662750
C       -5.19887752       2.70652367       6.44396918
C       -4.78954146       1.27864221       6.70211576
C       -4.69548318       3.38545218       5.32546192
N       -3.85534045       2.74298060       4.49158331
H       -1.57654895       2.10034633      -0.75887473
H       -3.01015768       3.50220286       0.63567626
H       -1.80969516       1.24743150       4.12108579
H       -0.38648607      -0.16509882       2.70425613
H       -3.27945422       5.17132019       2.22800228
H       -4.08507323       7.32042451       5.46810507
H       -5.52521375       9.24219742       2.58595731
H       -5.00277689      12.97363996       4.63240575
H       -4.06109586      11.79339034       6.59212996
H       -6.39544684       6.32787852       5.79686266
H       -6.49978989       2.77635695       8.17241218
H       -5.16114286       0.92349920       7.66918893
H       -3.69831825       1.18937307       6.72163069
H       -5.19550934       0.62419535       5.92404073
C       -7.47000762       5.25428040       7.96043023
C       -8.26218218       5.78227122       8.70078227
Br      -9.54306145       6.63598772       9.89786892
C        0.88130850      -0.88130850       0.88130850
C        0.92287181      -2.25479354       0.66591732
C        1.73470378      -3.06196935       1.47237865
C        2.51527879      -2.51599983       2.51008713
C        2.45398447      -1.12039822       2.69442575
C        1.64491980      -0.30809321       1.89191229
C        3.38513238      -3.35324986       3.36493562
C        3.12120560      -4.67828089       3.65019567
C        4.02520866      -5.38364914       4.44609014
C        3.66440543      -6.79355026       4.72753355
O        3.40324780      -7.51828733       3.77525843
N        3.60109682      -7.11798351       6.06617495
C        3.29412409      -8.37639276       6.64008921
C        3.03157244      -9.52166461       5.88135139
C        2.73127175     -10.73124169       6.51419868
Cl       2.40693260     -12.13293890       5.56853652
C        2.69098322     -10.81981555       7.90411470
C        2.95775150      -9.68895333       8.67384367
C        3.25873027      -8.47768697       8.04535758
Cl       3.59290938      -7.10272857       9.04369981
C        5.20807205      -4.77875275       4.92539431
C        6.21788062      -5.45232388       5.65826006
C        7.34662892      -4.77401533       6.10375467
C        7.50015732      -3.42529578       5.82450743
C        6.51910471      -2.74828232       5.08198334
C        6.72287269      -1.29017845       4.75724829
C        5.37807568      -3.41469373       4.61362788
N        4.48192035      -2.73761014       3.87037388
H        0.33746560      -2.70966769      -0.12911275
H        1.76242680      -4.12842554       1.25718445
H        3.04909927      -0.65164544       3.47746773
H        1.62566551       0.76455529       2.06453316
H        2.22799974      -5.17131878       3.27945816
H        3.76207995      -6.37225402       6.73926885
H        3.05437373      -9.50253276       4.79646200
H        2.45525705     -11.76362955       8.38993600
H        2.93009670      -9.75811439       9.75840507
H        6.13801601      -6.51748389       5.86468812
H        8.38519997      -2.89461963       6.16873941
H        7.58721245      -0.87793851       5.28868003
H        5.84807117      -0.70386828       5.05738257
H        6.89585129      -1.16430586       3.68358826
C        8.35783586      -5.47514953       6.85173285
C        9.20472167      -6.06234943       7.47816458
Br      10.57406439      -7.01180200       8.49105170
