181
Properties=species:S:1:pos:R:3 pbc="F F F"
C        0.00000000       0.00000000       0.00000000
C        0.88139212       0.88139212      -0.88139212
C        2.23329406       0.58555409      -1.02610678
C        3.04083638       1.39268198      -1.83757640
C        2.51355076       2.50537494      -2.51990624
C        1.14297405       2.78103305      -2.34205605
C        0.33068349       1.97790845      -1.53453878
C        3.34146973       3.36418531      -3.39271673
C        4.41799576       2.89634828      -4.11982279
C        5.11162821       3.79543099      -4.93122469
C        6.28531841       3.24558883      -5.64842979
O        6.11165652       2.27265688      -6.36965873
N        7.47982240       3.87369081      -5.35163932
C        8.75481590       3.56648940      -5.87213119
C        8.98186655       2.60288306      -6.85638446
C       10.27925341       2.34749829      -7.31660690
C       11.36402765       3.05498638      -6.79773906
Cl      12.93710391       2.68218329      -7.40371327
C       11.14501689       4.02726519      -5.81893436
Cl      12.43238117       4.94900571      -5.12484509
C        9.84514581       4.28231686      -5.36257952
C        4.70421251       5.14123993      -5.05555655
C        5.29962269       6.08328520      -5.93181181
C        4.84068474       7.39448648      -5.98271881
C        3.78879913       7.79317773      -5.17280482
C        3.17698646       6.86662247      -4.31329184
C        2.02071555       7.31274712      -3.45503610
C        3.61108233       5.53520915      -4.25929286
N        2.96897913       4.66623625      -3.45566498
H        2.67152656      -0.26586554      -0.51209136
H        4.09654566       1.14215524      -1.91486257
H        0.69349205       3.63531314      -2.84768236
H       -0.72316972       2.22027235      -1.42731122
H        4.71596823       1.85313795      -4.08656485
H        7.44774496       4.60684135      -4.65164324
H        8.17000806       2.02856058      -7.29391202
H       10.43048491       1.58963269      -8.08227931
H        9.69612164       5.04165376      -4.59887321
H        6.10839606       5.78772952      -6.59761571
H        3.42955706       8.81923255      -5.21131490
H        1.85310708       8.39184070      -3.53681820
H        2.22107193       7.09352285      -2.40087362
H        1.10173099       6.80536672      -3.76521551
C        5.45756360       8.33756688      -6.87918958
C        5.97419964       9.12739671      -7.62998384
Br       6.80955643      10.40448475      -8.84395467
C       -0.88139212      -0.88139212      -0.88139212
C       -0.29669982      -1.76222963      -1.78602548
C       -1.10585904      -2.57308465      -2.59215108
C       -2.51008087      -2.52122519      -2.50752589
C       -3.06768662      -1.61044957      -1.58792696
C       -2.26520312      -0.79920451      -0.77872308
C       -3.38537593      -3.37602746      -3.33696839
C       -3.03569957      -4.64525026      -3.75321701
C       -3.95451226      -5.37105843      -4.51271320
C       -3.50345614      -6.70584921      -4.97003167
O       -3.12662246      -7.50430621      -4.12304346
N       -3.49702204      -6.86554981      -6.34258068
C       -3.11369099      -8.01639086      -7.06335464
C       -2.75169418      -9.22454818      -6.46489171
C       -2.37351100     -10.32167502      -7.24817259
C       -2.35484659     -10.22223754      -8.63966897
Cl      -1.86893588     -11.61085754      -9.54320705
C       -2.72410766      -9.01982360      -9.24728517
Cl      -2.72961083      -8.81298521     -10.96363592
C       -3.10470981      -7.92470061      -8.46063178
C       -5.23334956      -4.85442518      -4.81323426
C       -6.24953266      -5.57073956      -5.49444748
C       -7.47967317      -4.97960745      -5.75860941
C       -7.72449908      -3.67679776      -5.35348484
C       -6.73425995      -2.96112924      -4.66151158
C       -7.02569148      -1.55258433      -4.21022295
C       -5.49384823      -3.54363081      -4.36810530
N       -4.58743528      -2.84047026      -3.66297482
H        0.78448365      -1.82576256      -1.87647348
H       -0.61568666      -3.23797909      -3.29989772
H       -4.15048585      -1.53363728      -1.49236441
H       -2.73329404      -0.11346763      -0.07765219
H       -2.08128928      -5.08803812      -3.48634363
H       -3.75337919      -6.05591626      -6.89693410
H       -2.75377382      -9.35268803      -5.38601880
H       -2.09303984     -11.25144282      -6.75791425
H       -3.38667144      -6.99717139      -8.95280578
H       -6.09162542      -6.60399043      -5.79812544
H       -8.68649554      -3.21308913      -5.56051985
H       -7.99314637      -1.20291515      -4.58570446
H       -6.26192350      -0.86489716      -4.58864774
H       -7.05175391      -1.50353997      -3.11701933
C       -8.50013066      -5.72267311      -6.45151628
C       -9.35476381      -6.34499060      -7.03182579
Br     -10.73663333      -7.35122534      -7.97013719
C       -0.88139212       0.88139212       0.88139212
C       -1.97618897       1.53932312       0.32944285
C       -2.78649269       2.34528060       1.13932148
C       -2.52052120       2.50599229       2.51231845
C       -1.39789214       1.83320526       3.03496574
C       -0.58573463       1.02542241       2.23197367
C       -3.36812869       3.33950186       3.39074122
C       -4.72604238       3.50492033       3.20320412
C       -5.42985666       4.29599793       4.11242930
C       -6.87314242       4.47505403       3.83114058
O       -7.56365101       3.47128251       3.71903860
N       -7.26032579       5.78978405       3.65504269
C       -8.55874043       6.26352418       3.37117187
C       -9.68845343       5.44594204       3.30673860
C      -10.94423855       5.98920717       3.00991289
C      -11.08361051       7.35748939       2.77565320
Cl     -12.65932754       7.95819226       2.40548068
C       -9.95999564       8.18439609       2.84682471
Cl     -10.04570843       9.88896474       2.57155879
C       -8.70525201       7.63796079       3.14682939
C       -4.79322009       4.87788546       5.22990345
C       -5.46067821       5.61032334       6.24371815
C       -4.75225122       6.15924400       7.30639481
C       -3.37846901       5.99187890       7.38443377
C       -2.70611689       5.25321080       6.39757308
C       -1.21477808       5.06379565       6.50992504
C       -3.40268659       4.67527878       5.32761897
N       -2.72831472       3.93606348       4.42650215
H       -2.20824284       1.43686796      -0.72735841
H       -3.62406739       2.85799273       0.67150336
H       -1.15179608       1.93284589       4.09184558
H        0.26788370       0.51849912       2.67379843
H       -5.24982593       3.02091312       2.38493198
H       -6.52703281       6.48950848       3.68968826
H       -9.63195263       4.37567409       3.48485393
H      -11.80892090       5.33073574       2.96274027
H       -7.84286119       8.29823023       3.19555720
H       -6.54206199       5.73196022       6.21971909
H       -2.82314489       6.42179512       8.21516450
H       -0.79818647       5.64258156       7.34099795
H       -0.71702952       5.40314450       5.59529440
H       -0.97962130       4.00896286       6.68372906
C       -5.44715211       6.89997231       8.32719564
C       -6.02913160       7.52033227       9.18211633
Br      -6.97014321       8.52340186      10.56445078
C        0.88139212      -0.88139212       0.88139212
C        2.09812587      -0.39616563       1.35066344
C        2.90491403      -1.20412057       2.16206016
C        2.51077874      -2.50698745       2.52106575
C        1.27752046      -2.96909944       2.01944325
C        0.46631236      -2.16662688       1.21019148
C        3.33744296      -3.37395026       3.38697855
C        4.15416950      -2.89028041       4.38971692
C        4.87023001      -3.80620662       5.16184725
C        5.76530385      -3.22494125       6.18909192
O        5.27408225      -2.46620711       7.01368277
N        7.09654970      -3.56542588       6.04317695
C        8.17287261      -3.16002846       6.86053541
C        8.02488613      -2.39644949       8.01979846
C        9.14375552      -2.02470472       8.77489837
C       10.42349166      -2.41444208       8.37881935
Cl      11.75889802      -1.91277372       9.35132873
C       10.58008988      -3.18613471       7.22499184
Cl      12.12913546      -3.71159137       6.66550513
C        9.45809983      -3.55878097       6.47316140
C        4.73475849      -5.19791378       4.96833672
C        5.35402714      -6.18535964       5.77533291
C        5.17425833      -7.53731331       5.50631839
C        4.38107233      -7.93304931       4.44066005
C        3.74635284      -6.96678086       3.64376706
C        2.87062858      -7.41599159       2.50187860
C        3.89853463      -5.59894258       3.90810714
N        3.23702289      -4.70486270       3.14899476
H        2.43182583       0.60501580       1.09094236
H        3.85711764      -0.79902637       2.49741946
H        0.93500116      -3.97321734       2.26826904
H       -0.48069411      -2.55735048       0.84775748
H        4.23125103      -1.82757694       4.59684307
H        7.33636068      -4.13254521       5.23732365
H        7.04947330      -2.07174439       8.37126297
H        9.00245829      -1.42706909       9.67286953
H        9.60149328      -4.15786491       5.57729042
H        5.95883131      -5.90058049       6.63432949
H        4.24051831      -8.99073852       4.22884769
H        2.91830868      -8.50110980       2.36234749
H        3.19777782      -6.95273762       1.56495297
H        1.82751787      -7.14769046       2.69710489
C        5.81098461      -8.52628152       6.33705392
C        6.34424288      -9.35454239       7.03279493
Br       7.20647639     -10.69377018       8.15774929
