194
Properties=species:S:1:pos:R:3 pbc="F F F"
C        1.79096836       1.79096836      -1.79096836
C        3.01214098       1.31258083      -2.25102435
C        3.82138329       2.12166140      -3.06199122
C        3.43230175       3.42416834      -3.43396236
C        2.18548965       3.87089139      -2.94339025
C        1.37204980       3.06955320      -2.13297765
C        4.26281034       4.30538844      -4.29943778
C        5.45821963       3.92656754      -4.88074914
C        6.13598580       4.84866112      -5.68117417
C        7.40140901       4.38242724      -6.28779181
O        7.35501382       3.41749837      -7.03841703
N        8.52179863       5.07285205      -5.87402032
C        9.85267418       4.89576389      -6.33140338
C       10.15856890       4.12825657      -7.46096535
C       11.48031059       3.97803315      -7.88632521
C       12.51483966       4.59065930      -7.18477981
C       12.23023782       5.36997391      -6.06153484
Cl      13.56703072       6.09620368      -5.23950551
C       10.90242851       5.53509061      -5.63756057
Cl      10.52410648       6.51193509      -4.24788452
C        5.61307113       6.13231883      -5.93773176
C        6.21485163       7.08757964      -6.79464132
C        5.62481709       8.32936751      -6.99722653
Br       6.44659211       9.58834730      -8.14038120
C        4.43062414       8.64033222      -6.36578000
C        3.81603398       7.69665946      -5.52621295
C        2.50404241       8.04240896      -4.86963924
C        4.39470251       6.43879377      -5.30586736
N        3.76641094       5.55196428      -4.50904842
H        3.34824521       0.31237770      -1.98915106
H        4.76505486       1.69693052      -3.39288449
H        1.82752456       4.86857302      -3.19685514
H        0.41973300       3.45773669      -1.78197590
H        5.87931613       2.93704228      -4.74574449
H        8.41352438       5.73221117      -5.10691569
H        9.38281606       3.64286612      -8.04711110
H       11.69755181       3.37951047      -8.76896810
H       13.54094027       4.45853446      -7.52103286
H        7.13818210       6.85680076      -7.32169485
H        3.96458081       9.60960205      -6.52891525
H        2.17902236       9.05548911      -5.12925556
H        2.59982470       7.99447799      -3.78008417
H        1.72200994       7.34997251      -5.19850837
C       -1.79096836      -1.79096836      -1.79096836
C       -2.98237426      -1.29059539      -2.30277650
C       -3.79155977      -2.09972951      -3.11374662
C       -3.43200003      -3.42422733      -3.43420509
C       -2.21491455      -3.89279042      -2.89206632
C       -1.40175850      -3.09153471      -2.08128745
C       -4.26302870      -4.30648295      -4.29812492
C       -5.42813654      -3.91011228      -4.92728748
C       -6.10978426      -4.83577648      -5.72026034
C       -7.34137415      -4.35075504      -6.37949888
O       -7.24259992      -3.41136034      -7.15696896
N       -8.49452638      -4.99407585      -5.98006878
C       -9.80494290      -4.79134427      -6.48355428
C      -10.05286291      -4.05034038      -7.64458753
C      -11.35594768      -3.87373128      -8.11498998
C      -12.42955316      -4.43299383      -7.42773179
C      -12.20308210      -5.18535011      -6.27331436
Cl     -13.58580626      -5.84530181      -5.47163185
C      -10.89435490      -5.37706377      -5.80366103
Cl     -10.58836911      -6.32133096      -4.37422603
C       -5.61939859      -6.14188838      -5.92183475
C       -6.22446195      -7.10472006      -6.76789059
C       -5.66734338      -8.36934572      -6.91472203
Br      -6.49300399      -9.63786984      -8.04444677
C       -4.50285535      -8.69633443      -6.23754658
C       -3.88483222      -7.74600174      -5.40807243
C       -2.60448697      -8.11050271      -4.70110093
C       -4.43063092      -6.46510464      -5.24362808
N       -3.79939536      -5.57329748      -4.45473080
H       -3.29506002      -0.27312019      -2.08159377
H       -4.71126358      -1.65729814      -3.48630815
H       -1.88056274      -4.90814268      -3.10424731
H       -0.47288978      -3.49708971      -1.68946611
H       -5.82225577      -2.90468080      -4.83516633
H       -8.42980832      -5.63232021      -5.19052271
H       -9.24519840      -3.60684988      -8.22074500
H      -11.52794503      -3.29657164      -9.02151372
H      -13.44050864      -4.28058646      -7.79941250
H       -7.12395781      -6.86274502      -7.32997489
H       -4.06235907      -9.68375029      -6.35698875
H       -2.30334159      -9.14044017      -4.91998527
H       -2.73141906      -8.02600238      -3.61696542
H       -1.79186454      -7.45238115      -5.02624512
C       -1.79096836       1.79096836       1.79096836
C       -1.34930049       3.05168228       2.17476338
C       -2.15953770       3.86217011       2.98332809
C       -3.42774705       3.43615545       3.42652995
C       -3.83648267       2.14843687       3.01485175
C       -3.03334789       1.33306238       2.20817038
C       -4.31573666       4.27395375       4.27794615
C       -4.02925368       5.56879644       4.66748617
C       -4.95456554       6.25002819       5.46122735
C       -4.60062248       7.63637093       5.83463466
O       -4.43095802       8.44635032       4.93362088
N       -4.43941627       7.83968801       7.18956671
C       -4.16773548       9.06870218       7.84340379
C       -4.26044360      10.30091353       7.18643369
C       -3.98981636      11.49299925       7.86185333
C       -3.61875123      11.46824767       9.20327988
C       -3.53117113      10.25013670       9.88043873
Cl      -3.06072192      10.29829471      11.54372329
C       -3.81499789       9.05015943       9.20992237
Cl      -3.72412674       7.52207574      10.03772362
C       -6.18021765       5.66465063       5.83825344
C       -7.18997754       6.32511806       6.58197699
C       -8.37439485       5.67330445       6.90371184
Br      -9.70451784       6.57168949       7.89911328
C       -8.58141117       4.36717545       6.48814973
C       -7.59504975       3.70661631       5.73724033
C       -7.84917325       2.29595797       5.27095939
C       -6.39190717       4.34421303       5.40324343
N       -5.47681605       3.68548812       4.66511948
H       -0.37826596       3.41919650       1.85231152
H       -1.76439446       4.83770291       3.25277251
H       -4.80765274       1.76192300       3.32337699
H       -3.39320896       0.35024680       1.91598983
H       -3.11873122       6.07496651       4.36840516
H       -4.43881404       7.02073928       7.79309791
H       -4.55927670      10.36964600       6.14387058
H       -4.07034335      12.44147006       7.33421697
H       -3.40181717      12.40302209       9.71566834
H       -7.06150406       7.35861534       6.89655831
H       -9.51094333       3.85834091       6.73381387
H       -8.82396974       1.92971245       5.61008484
H       -7.08500741       1.62046806       5.66891139
H       -7.84192696       2.25176744       4.17679641
C        1.79096836      -1.79096836       1.79096836
C        1.34680254      -3.04931062       2.17963299
C        2.15703425      -3.85980322       2.98819843
C        3.42771955      -3.43615886       3.42655405
C        3.83895065      -2.15079747       3.01002317
C        3.03584067      -1.33543321       2.20330677
C        4.31574776      -4.27406203       4.27782677
C        4.02668453      -5.56696089       4.67189087
C        4.95231667      -6.24857044       5.46493397
C        4.59548636      -7.63282144       5.84332027
O        4.42092889      -8.44488173       4.94511860
N        4.43758186      -7.83180507       7.19928407
C        4.16426579      -9.05816344       7.85741222
C        4.25157179     -10.29250674       7.20371229
C        3.97947657     -11.48187834       7.88331403
C        3.61232760     -11.45223262       9.22571856
C        3.53016713     -10.23194661       9.89963283
Cl       3.06434858     -10.27400589      11.56438545
C        3.81549835      -9.03470733       9.22487401
Cl       3.73136372      -7.50401144      10.04855094
C        6.18071071      -5.66563159       5.83677943
C        7.19070622      -6.32686174       6.57950464
C        8.37789717      -5.67752719       6.89598677
Br       9.70829453      -6.57687182       7.89015427
C        8.58745209      -4.37318881       6.47609546
C        7.60083452      -3.71195450       5.72611736
C        7.85764951      -2.30336744       5.25507366
C        6.39492394      -4.34705365       5.39738604
N        5.47960748      -3.68782118       4.65999498
H        0.37380260      -3.41496137       1.86101001
H        1.75987967      -4.83342658       3.26156362
H        4.81210050      -1.76618738       3.31466484
H        3.39766903      -0.35449101       1.90728555
H        3.11386708      -6.07137294       4.37686288
H        4.44104754      -7.01113748       7.80046622
H        4.54721978     -10.36507246       6.16050105
H        4.05578244     -12.43207912       7.35816881
H        3.39419306     -12.38491449       9.74140005
H        7.06018296      -7.35908404       6.89741072
H        9.51913369      -3.86631934       6.71764508
H        8.83445552      -1.93894852       5.59036298
H        7.09655920      -1.62455749       5.65327016
H        7.84739535      -2.26228172       4.16081374
C       -0.00445707       0.01189536      -1.78238275
H       -0.66409135       0.67374010      -2.43557963
H        0.65740317      -0.63156657      -2.45157240
C       -0.90989263      -0.90692880      -0.91072765
C        0.90977584       0.90977584      -0.90977584
C       -0.00465871       1.77757030       0.00794375
H       -0.66225468       2.44313916      -0.64384735
H        0.64322798       2.43503045       0.67728295
C       -1.78241447       0.00034974      -0.00472694
H       -2.45427497      -0.65498947       0.64260836
H       -2.43311707       0.67328779      -0.65473579
C       -0.91132561       0.90220522       0.91563759
C       -0.01476271      -0.02253852       1.78660255
H       -0.67934791      -0.69751639       2.42135241
H        0.63392994       0.61504881       2.47327442
C        0.01484550      -1.77751727      -0.01636693
H        0.67870853      -2.42144646      -0.68295456
H       -0.62264859      -2.45592969       0.64226336
C        1.78714474       0.01002794       0.00389507
H        2.44202412       0.67113390       0.66197326
H        2.45385902      -0.65136977      -0.64189061
C        0.91606151      -0.90478549       0.90901405
