185
Properties=species:S:1:pos:R:3 pbc="F F F"
C        0.00000000       0.00000000       0.00000000
C        0.88261579       0.88261579      -0.88261579
C        1.74192319       1.80408542      -0.28879283
C        2.53143107       2.61975646      -1.09287640
C        2.44310862       2.51916861      -2.48350013
C        1.58766284       1.58561219      -3.09422572
C        0.81539228       0.75510530      -2.27362529
C        1.56658843       1.47958581      -4.55993928
N        0.44723257       1.46978276      -5.37317079
C       -0.96110524       1.44510019      -4.97609220
C       -1.83593170       2.38497164      -5.77574126
C       -2.03774511       3.70312702      -5.34528657
C       -2.84909425       4.56934708      -6.07847241
C       -3.46207137       4.13232177      -7.25256931
C       -3.26769377       2.82212454      -7.71176562
C       -2.45281829       1.95612099      -6.96308058
C       -3.91601775       2.33634468      -8.98446078
F       -3.01312889       1.89671924      -9.90389159
F       -4.76550524       1.29286942      -8.76791081
F       -4.65735742       3.28849265      -9.61796221
N        0.74337963       1.37449597      -6.68958933
C        2.08033721       1.43580671      -6.75545970
C        2.75856340       1.50999789      -8.05220627
C        2.25378157       0.80645532      -9.15632134
C        2.88469012       0.88433544     -10.40116082
C        4.02383995       1.67201217     -10.55850715
C        4.51961652       2.38735711      -9.47139453
C        3.89123467       2.31862327      -8.22742001
C        2.63291422       1.40663892      -5.44648515
Cl       4.29018720       1.28140878      -5.05303466
H        1.80703731       1.89046922       0.79212321
H        3.21959273       3.33275435      -0.64343857
H        3.06656206       3.17627136      -3.08857531
H        0.16812274      -0.00247364      -2.70688058
H       -1.04142232       1.70585623      -3.91790319
H       -1.29977177       0.40790474      -5.08863350
H       -1.56407325       4.06570794      -4.43566113
H       -3.00035758       5.59036724      -5.73545120
H       -4.08879456       4.82398462      -7.81399088
H       -2.28280559       0.94021885      -7.32228036
H        1.35882603       0.19629163      -9.05140317
H        2.48133176       0.33542035     -11.24864266
H        4.50978561       1.72890642     -11.52893893
H        4.27901596       2.91413405      -7.40450579
C        5.68894711       3.21210641      -9.63280873
C        6.66826148       3.90283396      -9.76799313
Br       8.25172999       5.01968198      -9.98657487
C       -0.88261579      -0.88261579      -0.88261579
C       -0.31216249      -1.57359108      -1.94904787
C       -1.11899978      -2.36210226      -2.76296189
C       -2.49152800      -2.43998996      -2.51425941
C       -3.07695734      -1.75592975      -1.43461366
C       -2.25040711      -0.98410562      -0.60961014
C       -4.51637831      -1.90922656      -1.18050865
N       -5.43152550      -0.89423187      -0.96442876
C       -5.17735995       0.53999826      -0.82272546
C       -6.16050494       1.40994222      -1.57421847
C       -5.90219307       1.78962678      -2.89810219
C       -6.80504741       2.59684252      -3.59052035
C       -7.97855994       3.02810433      -2.97236409
C       -8.26692150       2.65336301      -1.65263790
C       -7.34841393       1.84441150      -0.96238085
C       -9.53602169       3.10368570      -0.97245173
F      -10.30550414       2.06437446      -0.54635227
F       -9.29067314       3.86312139       0.13227676
F      -10.34288665       3.86141751      -1.76762830
N       -6.69273894      -1.34343143      -0.77129455
C       -6.63068362      -2.66646975      -0.97445024
C       -7.85305276      -3.47424366      -0.99347115
C       -8.91679845      -3.16886313      -0.13089666
C      -10.09300232      -3.92369440      -0.15348967
C      -10.22224529      -4.98855383      -1.04356015
C       -9.17752904      -5.28574453      -1.91509458
C       -8.00294735      -4.53259102      -1.90173957
C       -5.27786844      -3.06970101      -1.13846884
Cl      -4.70876891      -4.67689266      -1.23896907
H        0.75341895      -1.50873017      -2.15007211
H       -0.68519905      -2.92087183      -3.58971476
H       -3.10056472      -3.05802016      -3.17282386
H       -2.65913605      -0.46842938       0.25503575
H       -4.16827860       0.76358978      -1.17764826
H       -5.20687510       0.75830896       0.25179968
H       -4.99582058       1.45912961      -3.40060485
H       -6.59496657       2.88700968      -4.61750397
H       -8.67361298       3.65444501      -3.53001297
H       -7.57318180       1.53441531       0.05907288
H       -8.83471408      -2.33349022       0.56168348
H      -10.91009956      -3.67446178       0.51916657
H      -11.13933551      -5.57155450      -1.05674095
H       -7.21689923      -4.76449247      -2.61626410
C       -9.31190402      -6.37718091      -2.84477732
C       -9.42444308      -7.29125888      -3.62338662
Br      -9.60640921      -8.76924564      -4.88233199
C       -0.88261579       0.88261579       0.88261579
C       -2.07787966       1.38415396       0.37276783
C       -2.87168168       2.20223826       1.17014399
C       -2.45602629       2.52561723       2.46413385
C       -1.25720561       2.01679448       2.99350066
C       -0.47885509       1.17637076       2.18889703
C       -0.88628481       2.34185983       4.37796888
N        0.33876652       2.81047913       4.81847352
C        1.57264597       2.98220905       4.05052407
C        2.29490290       4.27929973       4.34038437
C        2.01177386       5.42996392       3.59247840
C        2.68133631       6.62543472       3.85462683
C        3.63526166       6.68789523       4.87018614
C        3.92934339       5.55450616       5.64103362
C        3.25303582       4.35403073       5.36538837
C        4.95177974       5.60743572       6.74913172
F        4.43662126       5.26270041       7.96140279
F        5.99535457       4.75807836       6.53255121
F        5.50962284       6.83921409       6.91950619
N        0.37800733       3.03339042       6.15208183
C       -0.87228513       2.81669559       6.58262289
C       -1.24226156       3.10841672       7.97008929
C       -0.32833493       2.87854551       9.00967779
C       -0.66659216       3.16921710      10.33437712
C       -1.92015305       3.69959218      10.63461404
C       -2.82533318       3.94730950       9.60572547
C       -2.49186043       3.66486422       8.28055330
C       -1.66601572       2.29398438       5.52603820
Cl      -3.26231209       1.70172419       5.66059437
H       -2.40000910       1.14121727      -0.63584305
H       -3.81603315       2.58808826       0.79166424
H       -3.09313120       3.17520201       3.06307552
H        0.43656227       0.73535000       2.57374194
H        1.34126758       2.94027999       2.98332468
H        2.20996400       2.12101932       4.28571114
H        1.26700555       5.40422832       2.80007305
H        2.45520968       7.51286545       3.26780509
H        4.14493084       7.63096271       5.06314907
H        3.46375028       3.47189790       5.97154599
H        0.65812164       2.47529503       8.78934743
H        0.05229019       2.98795639      11.12972857
H       -2.17726128       3.92391655      11.66645314
H       -3.20416414       3.90003121       7.49346046
C       -4.11676422       4.50682315       9.91027489
C       -5.19833771       4.97541583      10.16533503
Br      -6.94715058       5.73309056      10.57774570
C        0.88261579      -0.88261579       0.88261579
C        0.49249219      -1.14944697       2.19286229
C        1.30514150      -1.93758987       3.00133257
C        2.50864622      -2.43835542       2.49877573
C        2.90774889      -2.18490178       1.17485008
C        2.07003980      -1.40937783       0.36470524
C        4.15658927      -2.77585123       0.67367302
N        5.17109630      -2.11919931      -0.00010949
C        5.19739440      -0.73389062      -0.47119787
C        6.50940315      -0.02716697      -0.21178892
C        6.70911454       0.67987280       0.98142674
C        7.91636329       1.33717160       1.21953355
C        8.93991243       1.29037432       0.27328161
C        8.77058109       0.58064189      -0.92374281
C        7.54886693      -0.07355109      -1.15603474
C        9.87091131       0.51248420      -1.95363940
F       10.25659606      -0.76321587      -2.23232998
F        9.49953032       1.05837156      -3.14588377
F       11.00569281       1.17132420      -1.58527117
N        6.20675065      -2.92621797      -0.32550369
C        5.92404191      -4.10777420       0.23978750
C        6.90533356      -5.19575811       0.21967588
C        7.73245272      -5.38241069      -0.89830517
C        8.68260420      -6.40734387      -0.91976168
C        8.82174314      -7.25353456       0.17908157
C        8.01666225      -7.06250051       1.29920539
C        7.07020223      -6.03762996       1.32944576
C        4.61407780      -4.08178665       0.79017385
Cl       3.76738624      -5.41315924       1.44408517
H       -0.43876632      -0.75486912       2.58928052
H        1.00573477      -2.16842554       4.02162533
H        3.12931321      -3.04535001       3.15674552
H        2.32644576      -1.22014812      -0.67406420
H        4.39479883      -0.17323365       0.01430461
H        4.97767527      -0.76449656      -1.54540537
H        5.92596489       0.72375326       1.73508419
H        8.06126076       1.88419929       2.14839939
H        9.87706171       1.80620576       0.47832499
H        7.41506610      -0.64202883      -2.07740132
H        7.64296532      -4.72265636      -1.75910086
H        9.31828768      -6.53909538      -1.79198829
H        9.56254088      -8.04841483       0.15667525
H        6.47876278      -5.88923909       2.22965394
C        8.16581667      -7.92664967       2.44139591
C        8.29073350      -8.65037459       3.39798048
Br       8.49271345      -9.82057658       4.94469681
