198
Properties=species:S:1:pos:R:3 pbc="F F F"
C        1.79132376       1.79132376      -1.79132376
C        2.08156447       3.09544598      -1.39738734
C        2.91968449       3.89081087      -2.18610565
C        3.45068010       3.39841631      -3.38585184
C        3.13496500       2.08658284      -3.77148367
C        2.31630182       1.28123906      -2.97470186
C        4.39824220       4.18656817      -4.17795812
N        4.18911710       5.45078946      -4.68906934
C        2.98200321       6.27691441      -4.65038077
C        2.13290727       6.19207183      -5.90321693
C        0.74097756       6.33701081      -5.79707073
C       -0.06889201       6.33209207      -6.93477704
C        0.49855501       6.18554799      -8.19982766
C        1.88502939       6.05400493      -8.34039528
C        2.68940724       6.07537821      -7.18827403
C        2.53013861       5.89915451      -9.69631966
F        3.36770796       6.92913984      -9.99828255
F        3.28049325       4.76569057      -9.78916513
F        1.63419361       5.83466422     -10.72103387
N        5.28059431       5.97198379      -5.29514491
C        6.16929943       4.96758442      -5.33384768
C        7.43725236       5.13344629      -6.04567467
C        8.11557784       6.36134960      -5.99722793
C        9.32883152       6.53316294      -6.66959611
C        9.86756953       5.47848956      -7.40236845
Br      11.51564168       5.70212862      -8.29942736
C        9.19677093       4.26028037      -7.48247838
C        7.98180524       4.09209176      -6.81168031
C        5.67801628       3.85392811      -4.59966165
Cl       6.52722993       2.41304445      -4.25996637
H        1.68228660       3.49348074      -0.46801538
H        3.17612505       4.88661525      -1.83179827
H        3.54647912       1.66656881      -4.68734201
H        2.10966066       0.25872951      -3.28058046
H        3.30352794       7.31451096      -4.49611928
H        2.39839763       5.98316889      -3.77521613
H        0.27166721       6.46612391      -4.82312944
H       -1.14571323       6.44870043      -6.83461886
H       -0.14641994       6.18294774      -9.07721143
H        3.76989225       6.00680313      -7.31860745
H        7.69760636       7.19248444      -5.43181741
H        9.84005094       7.49067998      -6.61444050
H        9.60546011       3.43855432      -8.06472301
H        7.46280407       3.14178819      -6.91139109
C       -1.79132376      -1.79132376      -1.79132376
C       -2.25517236      -3.01217688      -1.30704856
C       -3.09348931      -3.80272700      -2.10038470
C       -3.45134737      -3.39205836      -3.39154252
C       -2.96226486      -2.16513740      -3.86562925
C       -2.14291669      -1.36198423      -3.06734181
C       -4.39688305      -4.16531613      -4.20056931
N       -4.27532855      -5.49095316      -4.56269419
C       -3.17229985      -6.42039845      -4.31660009
C       -2.20258440      -6.55130908      -5.47430255
C       -0.85065093      -6.81718230      -5.20722587
C        0.06067861      -7.01117280      -6.24748291
C       -0.36377916      -6.94622890      -7.57392259
C       -1.70843206      -6.69779979      -7.87319774
C       -2.61746225      -6.51908772      -6.81650951
C       -2.20013567      -6.62684322      -9.29863389
F       -3.10963493      -7.59785223      -9.58764318
F       -2.81321886      -5.44287744      -9.57925265
F       -1.20813666      -6.75812446     -10.22363057
N       -5.35276072      -5.96639076      -5.22857153
C       -6.12169955      -4.89110405      -5.45792793
C       -7.32581731      -5.00917702      -6.28137900
C       -8.13244062      -6.15407478      -6.18763996
C       -9.28684823      -6.27909436      -6.96564798
C       -9.63740492      -5.26152439      -7.84949822
Br     -11.20606767      -5.41996781      -8.89116218
C       -8.83622025      -4.12886648      -7.97444294
C       -7.68035316      -4.00776573      -7.19745842
C       -5.58753161      -3.75803107      -4.78604336
Cl      -6.30729805      -2.21430064      -4.67864205
H       -1.99165624      -3.34557398      -0.30655250
H       -3.48727440      -4.72591064      -1.68135352
H       -3.23685051      -1.80737463      -4.85616480
H       -1.80022783      -0.40243408      -3.44630872
H       -3.61572479      -7.39997486      -4.09845852
H       -2.64754621      -6.09263694      -3.41659950
H       -0.49349410      -6.88642133      -4.18100513
H        1.10434796      -7.21937209      -6.02258194
H        0.35910255      -7.09897371      -8.37386807
H       -3.66696933      -6.36128427      -7.06704922
H       -7.86153966      -6.95662024      -5.50374831
H       -9.89996674      -7.17173898      -6.87346569
H       -9.09731861      -3.33831557      -8.67310327
H       -7.05602029      -3.12774837      -7.33221469
C       -1.79132376       1.79132376       1.79132376
C       -2.24302887       1.31250484       3.01886409
C       -3.01953748       2.13361252       3.84345101
C       -3.37225720       3.42707908       3.43561196
C       -2.91832552       3.88537195       2.18933404
C       -2.12340204       3.07611008       1.37273062
C       -4.11022876       4.32936799       4.32317174
N       -5.33641694       4.08592902       4.90662995
C       -6.23225415       2.94171026       4.73533398
C       -7.33807161       3.16684027       3.72328416
C       -7.81765609       2.07683123       2.98057178
C       -8.88031506       2.23014146       2.08752058
C       -9.48518263       3.47551993       1.92322809
C       -9.03998032       4.57900766       2.66044163
C       -7.97944698       4.40727802       3.56633449
C       -9.67744426       5.93895119       2.50921733
F      -10.26149233       6.37419127       3.65944674
F       -8.77706298       6.89959544       2.15869054
F      -10.65192362       5.98037549       1.55759259
N       -5.72763043       5.06013615       5.75995643
C       -4.82492523       6.04059082       5.60521548
C       -5.00706814       7.32323268       6.28607250
C       -5.52366313       7.35980833       7.59068390
C       -5.70010142       8.57723470       8.25425445
C       -5.36794837       9.76783811       7.61264106
Br      -5.59005876      11.41453108       8.51260781
C       -4.87715280       9.75331970       6.30905718
C       -4.70467299       8.53448244       5.64642188
C       -3.77029296       5.60255978       4.75875330
Cl      -2.33991750       6.46125403       4.39906922
H       -1.97628673       0.31345828       3.35403771
H       -3.31541586       1.75857251       4.82055020
H       -3.15765205       4.89175003       1.85098786
H       -1.76019323       3.46429695       0.42448045
H       -6.67301659       2.72476500       5.71637658
H       -5.62760790       2.07760678       4.45156796
H       -7.37304817       1.08990377       3.09796863
H       -9.24152636       1.37400357       1.52207614
H      -10.31222556       3.57905775       1.22245592
H       -7.66850034       5.26909287       4.15770962
H       -5.79166946       6.43377641       8.09646234
H       -6.09666368       8.58235484       9.26615290
H       -4.62996381      10.68036222       5.79841141
H       -4.34645623       8.54966819       4.61985894
C        1.79132376      -1.79132376       1.79132376
C        2.18811103      -1.33880090       3.04748587
C        2.96455572      -2.16143244       3.87061285
C        3.37204405      -3.42909121       3.43381298
C        2.97295475      -3.86056779       2.15950898
C        2.17824859      -3.05061279       1.34338135
C        4.11065120      -4.33609496       4.31602233
N        5.30917340      -4.07318720       4.94661531
C        6.17213761      -2.89623071       4.84093007
C        7.31616511      -3.05311380       3.85891714
C        7.78314552      -1.92481401       3.16709957
C        8.87795111      -2.01520204       2.30482394
C        9.52805532      -3.23480219       2.12107315
C        9.09603554      -4.37529999       2.80809407
C        8.00234585      -4.26686370       3.68384993
C        9.78203023      -5.70874279       2.63483976
F       10.34331613      -6.16262487       3.78918935
F        8.92503250      -6.68541851       2.22489795
F       10.78694595      -5.68823617       1.71470959
N        5.70481179      -5.06188166       5.78102956
C        4.83994857      -6.06481403       5.56596893
C        5.04225775      -7.36260350       6.21151208
C        5.51826057      -7.42540733       7.53048746
C        5.71328808      -8.65766462       8.16063786
C        5.44064470      -9.83658892       7.47119392
Br       5.68783946     -11.50394427       8.32541393
C        4.99110239      -9.79503729       6.15338999
C        4.79995363      -8.56127594       5.52434774
C        3.79886845      -5.63294329       4.69979430
Cl       2.40938481      -6.52423407       4.26662187
H        1.87842317      -0.36016632       3.40519322
H        3.21698522      -1.80933060       4.86822274
H        3.25559505      -4.84728960       1.79750529
H        1.85807533      -3.41891897       0.37197634
H        6.57433918      -2.69760767       5.84221132
H        5.54887258      -2.04287349       4.56503657
H        7.30305769      -0.95679890       3.30106398
H        9.22871225      -1.13006324       1.77883057
H       10.37978316      -3.28919828       1.44475779
H        7.70116285      -5.15693094       4.23720904
H        5.73975808      -6.50837384       8.07377630
H        6.07761084      -8.68328266       9.18427792
H        4.79058761     -10.71226315       5.60588667
H        4.47506350      -8.55425144       4.48666841
C       -0.00445707       0.01189536      -1.78238275
H       -0.66409135       0.67374010      -2.43557963
H        0.65740317      -0.63156657      -2.45157240
C       -0.90989263      -0.90692880      -0.91072765
C        0.90977584       0.90977584      -0.90977584
C       -0.00465871       1.77757030       0.00794375
H       -0.66225468       2.44313916      -0.64384735
H        0.64322798       2.43503045       0.67728295
C       -1.78241447       0.00034974      -0.00472694
H       -2.45427497      -0.65498947       0.64260836
H       -2.43311707       0.67328779      -0.65473579
C       -0.91132561       0.90220522       0.91563759
C       -0.01476271      -0.02253852       1.78660255
H       -0.67934791      -0.69751639       2.42135241
H        0.63392994       0.61504881       2.47327442
C        0.01484550      -1.77751727      -0.01636693
H        0.67870853      -2.42144646      -0.68295456
H       -0.62264859      -2.45592969       0.64226336
C        1.78714474       0.01002794       0.00389507
H        2.44202412       0.67113390       0.66197326
H        2.45385902      -0.65136977      -0.64189061
C        0.91606151      -0.90478549       0.90901405
