197
Properties=species:S:1:pos:R:3 pbc="F F F"
C        0.00000000       0.00000000       0.00000000
C        0.88190200       0.88190200      -0.88190200
C        0.62508647       0.96633841      -2.25118704
C        1.42931732       1.77320089      -3.05882482
C        2.48912132       2.48398166      -2.48593284
C        2.73576059       2.41269674      -1.11078438
C        1.93169431       1.60104283      -0.30818148
S        3.48166707       3.55041402      -3.50036805
O        2.71105905       3.88440990      -4.67752006
O        4.07056029       4.56980419      -2.66153425
N        4.69297159       2.51734657      -4.01511008
C        5.88741739       2.39729826      -3.18445052
C        6.84466654       1.39155583      -3.77590777
C        7.87229734       1.81031151      -4.63139977
C        8.73108924       0.87849471      -5.21842939
C        8.57498354      -0.49129677      -4.96768666
C        7.54701790      -0.90948879      -4.11103063
C        6.68513427       0.02231881      -3.52676455
C        9.49360610      -1.49971029      -5.61743383
N        8.74305241      -2.44098567      -6.44792634
S        9.60981940      -3.60600910      -7.28371591
O        8.75374855      -4.04484466      -8.36365976
O       10.94191778      -3.10318462      -7.52818960
C        9.71231255      -4.92667956      -6.10104240
C       10.81804906      -5.00376987      -5.24702942
C       10.92708256      -6.07265973      -4.35512263
C        9.94171094      -7.06087044      -4.33452432
C        8.84586082      -6.99200980      -5.19620540
C        8.73010561      -5.92238987      -6.08694486
H       -0.20037516       0.41546405      -2.69562145
H        1.22123916       1.84708826      -4.12427972
H        3.54157022       2.98693355      -0.65898242
H        2.12421267       1.54293588       0.76037693
H        4.82672755       2.54203771      -5.02498039
H        5.62252899       2.09001299      -2.16698445
H        6.39288896       3.36758326      -3.11461959
H        8.00924129       2.86761753      -4.85126786
H        9.51914950       1.23345046      -5.88012723
H        7.40435886      -1.96912347      -3.90633761
H        5.88104415      -0.32745061      -2.88224953
H       10.04366775      -2.03053245      -4.83326836
H       10.22068794      -0.96774745      -6.24168379
H        7.98140451      -2.05614717      -7.00576522
H       11.59875172      -4.24692535      -5.27710751
H       11.78641445      -6.13311608      -3.69154970
H        8.08541426      -7.76921839      -5.18892844
H        7.88337413      -5.87866633      -6.76895549
C       10.06312807      -8.16852269      -3.42240350
C       10.16481492      -9.09618145      -2.65850233
Br      10.32923396     -10.59612721      -1.42333873
C       -0.88190200      -0.88190200      -0.88190200
C       -0.36609827      -2.06634567      -1.41016798
C       -1.17126399      -2.87465067      -2.21542836
C       -2.48618295      -2.48383571      -2.48901716
C       -3.00840847      -1.30537473      -1.94545851
C       -2.19802331      -0.49826201      -1.14463330
S       -3.52865817      -3.53390587      -3.46988510
O       -2.98424001      -4.87249088      -3.41625812
O       -4.90777071      -3.25905614      -3.13507188
N       -3.23347168      -2.97345661      -5.01849994
C       -4.06476089      -1.88361009      -5.52079520
C       -3.62623486      -1.47889458      -6.90700070
C       -4.23976645      -2.03884159      -8.03540057
C       -3.80548029      -1.70299396      -9.31953909
C       -2.74416387      -0.80619715      -9.50101241
C       -2.13125627      -0.24577043      -8.37153304
C       -2.56294714      -0.58473590      -7.08653458
C       -2.26361385      -0.45734680     -10.89036899
N       -0.85845415      -0.82064322     -11.07089571
S       -0.16892105      -0.54569247     -12.57291269
O        0.98706065      -1.41158823     -12.64803608
O       -1.21093226      -0.58312929     -13.57286121
C        0.41306486       1.12549767     -12.42523791
C       -0.41003127       2.18123272     -12.83251005
C        0.06761507       3.49185629     -12.76901682
C        1.36490939       3.73507562     -12.31534982
C        2.19137208       2.68113117     -11.92255967
C        1.71648629       1.36884784     -11.97999474
H        0.65538419      -2.37087889      -1.19521565
H       -0.77168503      -3.80343036      -2.61749176
H       -4.03945362      -1.01432467      -2.13370791
H       -2.60220267       0.41923272      -0.72380166
H       -3.00188215      -3.72257774      -5.66928576
H       -4.00880015      -1.01525690      -4.85546938
H       -5.11324002      -2.20132679      -5.56052501
H       -5.05956717      -2.74606848      -7.92249103
H       -4.30024133      -2.15536246     -10.17712340
H       -1.30164432       0.44920484      -8.48913352
H       -2.05784844      -0.15361278      -6.22438185
H       -2.40880003       0.61578062     -11.05338426
H       -2.87329791      -0.99780929     -11.62351708
H       -0.55698504      -1.70691435     -10.66712316
H       -1.41332550       1.99228974     -13.20789812
H       -0.57159873       4.31252876     -13.08577809
H        3.20654013       2.87020433     -11.58186876
H        2.36758580       0.54721355     -11.68846264
C        1.85913375       5.08658330     -12.26272594
C        2.27304664       6.21847099     -12.21865343
Br       2.94230879       8.04863764     -12.14739191
C       -0.88190200       0.88190200       0.88190200
C       -0.86081564       0.71442276       2.26737351
C       -1.66525432       1.52070561       3.07538309
C       -2.48932631       2.48459651       2.48511301
C       -2.49751514       2.66395276       1.09777381
C       -1.69483925       1.85228562       0.29379374
S       -3.47470364       3.54576399       3.51198150
O       -2.88260231       3.55919618       4.83119052
O       -3.74765838       4.76659453       2.78764582
N       -4.89817555       2.67734555       3.64990713
C       -5.93180486       2.89508003       2.64228129
C       -7.11753706       1.99701183       2.89758125
C       -8.20569385       2.45792308       3.65039168
C       -9.28381763       1.61508560       3.92911011
C       -9.29216556       0.29223768       3.46697018
C       -8.20339365      -0.16801045       2.71317654
C       -7.12275030       0.67386060       2.43760672
C      -10.45099005      -0.62393822       3.78427780
N      -10.00761761      -1.79601992       4.53839539
S      -11.17215880      -2.90147821       5.01684562
O      -10.59511061      -3.64053730       6.11799035
O      -12.43628894      -2.21390639       5.14454021
C      -11.26049497      -3.99185968       3.61804009
C      -12.19728561      -3.74448168       2.60850468
C      -12.30566644      -4.63213357       1.53601258
C      -11.49079495      -5.76425536       1.48882522
C      -10.56620338      -6.01904206       2.50289510
C      -10.45096787      -5.13169058       3.57538332
H       -0.21823856      -0.03340271       2.72587450
H       -1.63960070       1.39689954       4.15610690
H       -3.11618610       3.43214413       0.63915596
H       -1.70245158       1.98916559      -0.78484555
H       -5.20265596       2.57423001       4.61685967
H       -5.54057478       2.70125988       1.63769177
H       -6.26648721       3.93865713       2.66994747
H       -8.21989653       3.47796544       4.03026472
H      -10.11424072       2.00061198       4.51787450
H       -8.18665313      -1.19359080       2.34851066
H       -6.27898589       0.28799000       1.86886718
H      -10.92716241      -0.92640498       2.84564624
H      -11.18906462      -0.07135198       4.37691163
H       -9.30746961      -1.63911087       5.26266381
H      -12.84922409      -2.87496485       2.65467464
H      -13.03380496      -4.44043147       0.75147457
H       -9.94103203      -6.90820439       2.47229666
H       -9.74083663      -5.34020348       4.37303014
C      -11.61344619      -6.68442153       0.38798423
C      -11.71616660      -7.45506071      -0.53397009
Br     -11.88225682      -8.70111908      -2.02469226
C        0.88190200      -0.88190200       0.88190200
C        0.29386892      -1.70640567       1.84233733
C        1.09835329      -2.51446046       2.64852927
C        2.48756080      -2.48336612       2.48810890
C        3.07562364      -1.66978572       1.51383235
C        2.26735658      -0.86027344       0.71328859
S        3.50990239      -3.54680906       3.47573768
O        2.68654658      -4.63720234       3.94924008
O        4.75053576      -3.77994709       2.77141589
N        3.82586188      -2.58890182       4.81066453
C        4.99307604      -1.71345207       4.76263806
C        5.09238959      -0.89379051       6.02595004
C        5.87194795      -1.34125690       7.10080377
C        5.92911295      -0.60978334       8.28911705
C        5.20212445       0.57993833       8.42918731
C        4.42293034       1.02741891       7.35304831
C        4.36239735       0.29363621       6.16545648
C        5.25079068       1.36108152       9.72162049
N        3.91989307       1.48512947      10.31522949
S        3.79178202       2.28569948      11.78144368
O        2.54677837       1.84546612      12.37125141
O        5.04830373       2.16553309      12.48415211
C        3.58584370       3.97567615      11.27650783
C        4.70934498       4.80046993      11.15243356
C        4.54379995       6.14399914      10.80974465
C        3.26042400       6.65475022      10.60969103
C        2.13853554       5.83589658      10.74741746
C        2.29933502       4.49028437      11.08560996
H       -0.78625731      -1.73197180       1.96499586
H        0.63813980      -3.16520717       3.38926018
H        4.15358514      -1.66561484       1.36828621
H        2.72367365      -0.22560696      -0.04250899
H        3.63635805      -3.06707956       5.69030804
H        4.93859444      -1.04205978       3.89887220
H        5.90519048      -2.31246089       4.65744045
H        6.43837306      -2.26752878       7.02222484
H        6.54191869      -0.98322533       9.10758318
H        3.84604192       1.94632551       7.44185658
H        3.73383923       0.64943897       5.35144281
H        5.67670719       2.34943894       9.51913542
H        5.91303046       0.84348274      10.42507656
H        3.31935212       0.66230444      10.27397488
H        5.70901850       4.41023206      11.33014744
H        5.41662847       6.78537302      10.71359261
H        1.13825540       6.23764800      10.60451689
H        1.42281167       3.85727494      11.20812656
C        3.09200044       8.04359640      10.26860485
C        2.95094570       9.20675508       9.98294518
Br       2.72287213      11.08748429       9.52105764
