189
Properties=species:S:1:pos:R:3 pbc="F F F"
C        0.00000000       0.00000000       0.00000000
C        0.88190200       0.88190200      -0.88190200
C        0.62508647       0.96633841      -2.25118704
C        1.42931732       1.77320089      -3.05882482
C        2.48912132       2.48398166      -2.48593284
C        2.73576059       2.41269674      -1.11078438
C        1.93169431       1.60104283      -0.30818148
S        3.48166707       3.55041402      -3.50036805
O        2.71105905       3.88440990      -4.67752006
O        4.07056029       4.56980419      -2.66153425
N        4.69297159       2.51734657      -4.01511008
C        5.88741739       2.39729826      -3.18445052
C        6.84466654       1.39155583      -3.77590777
C        7.87229734       1.81031151      -4.63139977
C        8.73108924       0.87849471      -5.21842939
C        8.57498354      -0.49129677      -4.96768666
C        7.54701790      -0.90948879      -4.11103063
C        6.68513427       0.02231881      -3.52676455
C        9.49360610      -1.49971029      -5.61743383
N        8.74305241      -2.44098567      -6.44792634
S        9.60981940      -3.60600910      -7.28371591
O        8.75374855      -4.04484466      -8.36365976
O       10.94191778      -3.10318462      -7.52818960
C        9.71231255      -4.92667956      -6.10104240
C       10.81804906      -5.00376987      -5.24702942
C       10.92708256      -6.07265973      -4.35512263
C        9.94171094      -7.06087044      -4.33452432
Br      10.10111171      -8.51503605      -3.13705939
C        8.84586082      -6.99200980      -5.19620540
C        8.73010561      -5.92238987      -6.08694486
H       -0.20037516       0.41546405      -2.69562145
H        1.22123916       1.84708826      -4.12427972
H        3.54157022       2.98693355      -0.65898242
H        2.12421267       1.54293588       0.76037693
H        4.82672755       2.54203771      -5.02498039
H        5.62252899       2.09001299      -2.16698445
H        6.39288896       3.36758326      -3.11461959
H        8.00924129       2.86761753      -4.85126786
H        9.51914950       1.23345046      -5.88012723
H        7.40435886      -1.96912347      -3.90633761
H        5.88104415      -0.32745061      -2.88224953
H       10.04366775      -2.03053245      -4.83326836
H       10.22068794      -0.96774745      -6.24168379
H        7.98140451      -2.05614717      -7.00576522
H       11.59875172      -4.24692535      -5.27710751
H       11.78641445      -6.13311608      -3.69154970
H        8.08541426      -7.76921839      -5.18892844
H        7.88337413      -5.87866633      -6.76895549
C       -0.88190200      -0.88190200      -0.88190200
C       -0.30434838      -1.91073637      -1.62752716
C       -1.10914654      -2.71897633      -2.43322015
C       -2.48685959      -2.48353210      -2.48864413
C       -3.06788475      -1.46332089      -1.72803607
C       -2.25842509      -0.65499315      -0.92750038
S       -3.51989252      -3.54094284      -3.47161378
O       -2.81503639      -4.78788785      -3.67006477
O       -4.86248987      -3.50213584      -2.93727302
N       -3.51190032      -2.76145014      -4.95207777
C       -4.53063063      -1.74427560      -5.19425994
C       -4.34039717      -1.11772593      -6.55400704
C       -5.03164142      -1.61615705      -7.66621014
C       -4.82310728      -1.07026273      -8.93464333
C       -3.91374162      -0.01996467      -9.11766713
C       -3.22301957       0.47872077      -8.00426094
C       -3.42850570      -0.06998349      -6.73572842
C       -3.67586315       0.55786778     -10.49333427
N       -2.27559798       0.41701805     -10.89141315
S       -1.83892449       0.96477845     -12.41338017
O       -0.60806401       0.28265881     -12.74715846
O       -2.99692705       0.90510051     -13.27509621
C       -1.44908252       2.67004601     -12.10763887
C       -2.44248002       3.64330236     -12.26213094
C       -2.12312068       4.98993103     -12.07635581
C       -0.81470322       5.35342958     -11.75409117
Br      -0.38252596       7.17883094     -11.51944003
C        0.17978316       4.38415494     -11.61399452
C       -0.13582352       3.03554207     -11.79437916
H        0.76636250      -2.09484851      -1.58222433
H       -0.65937901      -3.52788763      -3.00534051
H       -4.14266676      -1.29702238      -1.74779705
H       -2.70875021       0.13991370      -0.33793511
H       -3.28344295      -3.38684547      -5.72345722
H       -4.48889045      -0.96367245      -4.42696352
H       -5.52819048      -2.19677672      -5.15012461
H       -5.73608212      -2.43840026      -7.55364430
H       -5.37319342      -1.47936055      -9.78017323
H       -2.50809831       1.29084726      -8.12432195
H       -2.86505031       0.31910739      -5.88990015
H       -3.97124164       1.61236925     -10.48753127
H       -4.31101788       0.03119477     -11.21480117
H       -1.81595944      -0.46139170     -10.65367141
H       -3.45766777       3.36432772     -12.53559383
H       -2.89475172       5.74659490     -12.19669123
H        1.20182712       4.66910708     -11.37605850
H        0.64411741       2.28263595     -11.70041666
C       -0.88190200       0.88190200       0.88190200
C       -0.70233776       0.87427543       2.26599873
C       -1.50662328       1.68093865       3.07378109
C       -2.48921983       2.48417703       2.48563895
C       -2.65755887       2.50463640       1.09704645
C       -1.85400356       1.69292588       0.29398918
S       -3.47893074       3.54913980       3.50437860
O       -2.76194445       3.77054886       4.74049570
O       -3.95916986       4.64693513       2.69579374
N       -4.77447089       2.56248267       3.88847467
C       -5.92244958       2.56004382       2.98667277
C       -6.96779557       1.58128036       3.46305421
C       -8.01927576       2.01168550       4.28304736
C       -8.96209566       1.10101673       4.76490095
C       -8.86825068      -0.25944882       4.44257156
C       -7.81633629      -0.68924691       3.62147036
C       -6.87059916       0.22107499       3.14254346
C       -9.87870106      -1.24642228       4.97905086
N       -9.23247659      -2.27547312       5.79298961
S      -10.21102264      -3.43201117       6.50851474
O       -9.44631416      -3.98049212       7.60674162
O      -11.52505947      -2.86561228       6.70747556
C      -10.31696074      -4.67608707       5.24580171
C      -11.37273934      -4.63966013       4.32822940
C      -11.48834255      -5.64866401       3.36986692
C      -10.56028482      -6.69081374       3.34589374
Br     -10.72952995      -8.06374265       2.05734776
C       -9.51527421      -6.73528608       4.27006829
C       -9.39286166      -5.72588750       5.22768645
H        0.06324709       0.25147801       2.72247942
H       -1.35822479       1.68267507       4.15170729
H       -3.40181418       3.14996637       0.63570565
H       -1.98582771       1.70616918      -0.78522527
H       -4.96622837       2.53854551       4.88897177
H       -5.61534770       2.29498232       1.96919641
H       -6.36784749       3.56095382       2.94629051
H       -8.10966725       3.06129548       4.55716395
H       -9.76688842       1.46447799       5.40136079
H       -7.72127792      -1.74236495       3.36266003
H       -6.05055777      -0.13912764       2.52441294
H      -10.41016154      -1.69904416       4.13528629
H      -10.61060164      -0.70806073       5.59208337
H       -8.48488823      -1.96822870       6.41436302
H      -12.11030758      -3.84076269       4.35938898
H      -12.30888742      -5.62090499       2.65686563
H       -8.80038425      -7.55455491       4.25929496
H       -8.58690327      -5.77060825       5.95736827
C        0.88190200      -0.88190200       0.88190200
C        0.29079085      -1.76848351       1.78333756
C        1.09535558      -2.57660341       2.58938404
C        2.48736437      -2.48339591       2.48827554
C        3.07951260      -1.60714238       1.57258673
C        2.27088523      -0.79795353       0.77207985
S        3.51280269      -3.54532608       3.47432037
O        2.71727373      -4.68649369       3.86922160
O        4.78920441      -3.69921476       2.81347956
N        3.73505722      -2.63193719       4.85843382
C        4.86582048      -1.70932372       4.89402198
C        4.88040249      -0.93962421       6.19210343
C        5.63434783      -1.39993024       7.27973054
C        5.61351656      -0.71683492       8.49766186
C        4.83264091       0.43603943       8.65477194
C        4.07910997       0.89642765       7.56587742
C        4.09664612       0.21086248       6.34843398
C        4.79709940       1.16404995       9.97828019
N        3.43954505       1.21003127      10.52047931
S        3.21977078       1.94314437      12.01089981
O        1.97159810       1.42937286      12.53033842
O        4.45113184       1.84412953      12.75992044
C        2.96402697       3.64309129      11.56573970
C        4.05629547       4.51655131      11.52156445
C        3.84881211       5.86549013      11.22622348
C        2.55431200       6.33245208      10.99350489
Br       2.27558816       8.16254356      10.61009045
C        1.46286116       5.46441868      11.05161395
C        1.66587313       4.11339786      11.34218534
H       -0.79137289      -1.84225494       1.85982829
H        0.63339727      -3.27547007       3.28373980
H        4.16131966      -1.55386473       1.47230181
H        2.73022449      -0.11466906       0.06187807
H        3.53062890      -3.15348897       5.70962777
H        4.81799598      -1.00528536       4.05624509
H        5.80554228      -2.26652499       4.80302455
H        6.24150946      -2.29876543       7.18785179
H        6.20814791      -1.09923261       9.32534669
H        3.46140031       1.78706625       7.66723894
H        3.48684471       0.57483584       5.52383420
H        5.18927083       2.17619976       9.83333259
H        5.45167456       0.64449543      10.68744514
H        2.87588820       0.36630477      10.42143912
H        5.06344341       4.15949935      11.72498981
H        4.69734166       6.54466100      11.19216740
H        0.45323797       5.83149227      10.88337860
H        0.81225378       3.44133294      11.40274245
