162
Properties=species:S:1:pos:R:3 pbc="F F F"
C        4.31713387       4.09065609      -5.45599806
O        4.44539619       4.14209615      -4.03660983
C        3.57235348       3.37462097      -3.31389253
C        2.27499037       3.10292782      -3.77258912
C        1.38253771       2.32298612      -3.01905687
C        0.02189442       2.11352221      -3.56343860
O       -0.31923209       2.59932069      -4.63725844
C        1.79595883       1.79595883      -1.79595883
C        3.07916126       2.08713857      -1.32226622
C        3.96451122       2.89463114      -2.05403081
O        5.14224822       3.10750142      -1.38591099
C        6.12827042       3.93775813      -1.98167275
C        7.29016957       4.11228618      -1.00406686
O        8.38746663       3.60856331      -1.23086483
N        6.95870182       4.91677922       0.07743679
C        7.81143622       5.37116486       1.10292591
C        9.15938138       5.01967661       1.20999108
C        9.94804063       5.52485132       2.25054012
C        9.39009672       6.38931985       3.18726111
Br      10.45739608       7.07576357       4.58704965
C        8.04924076       6.75030492       3.09559999
C        7.26282320       6.23916443       2.05733420
H        5.23134697       4.51009412      -5.88712457
H        3.47900811       4.70869380      -5.79163623
H        4.21942309       3.06084716      -5.81668689
H        1.92580362       3.51536836      -4.71665292
H       -0.68974631       1.51366775      -2.97718206
H        3.40794982       1.69132968      -0.36207858
H        5.73063751       4.93894323      -2.18913325
H        6.52562865       3.47874776      -2.89440257
H        5.99114842       5.21406773       0.12916685
H        9.63365519       4.34802089       0.50083461
H       10.99349753       5.23438297       2.31319951
H        7.60739001       7.42788831       3.82166514
H        6.21963747       6.53944976       2.00326384
C       -5.37901964      -4.56605641      -3.91871197
O       -3.99218832      -4.41643275      -4.21548110
C       -3.28468855      -3.55497779      -3.42120064
C       -3.88226987      -2.42556573      -2.84267171
C       -3.14560196      -1.54147392      -2.03750482
C       -3.84786326      -0.35698352      -1.49400845
O       -5.03368151      -0.15110664      -1.73255890
C       -1.79595883      -1.79595883      -1.79595883
C       -1.18971055      -2.90577071      -2.39308480
C       -1.91154793      -3.77457138      -3.22705387
O       -1.11865876      -4.75798730      -3.75901457
C       -1.69707720      -5.69535225      -4.65527186
C       -0.59939390      -6.61144961      -5.19567910
O       -0.55265269      -7.79703931      -4.87720277
N        0.24653771      -5.96110610      -6.08347587
C        1.28967877      -6.52450590      -6.84484804
C        1.67098895      -7.86668922      -6.77336664
C        2.70915737      -8.35716175      -7.57434744
C        3.36790288      -7.50492023      -8.45513811
Br       4.76420235      -8.16981631      -9.54049604
C        3.00086334      -6.16523405      -8.53957499
C        1.96637856      -5.67744414      -7.73358785
H       -5.73210630      -5.46744987      -4.42900949
H       -5.95185874      -3.71919790      -4.30828150
H       -5.55117657      -4.70057542      -2.84520516
H       -4.92979048      -2.19908172      -3.02895269
H       -3.27874592       0.34871854      -0.87107613
H       -0.13287386      -3.10684321      -2.22164101
H       -2.14824623      -5.19145166      -5.51901609
H       -2.43373453      -6.32372341      -4.14132104
H        0.08908555      -4.96653515      -6.19859969
H        1.18364449      -8.56489149      -6.09959448
H        2.98848287      -9.40477155      -7.49839231
H        3.50858379      -5.49437275      -9.22782422
H        1.69389894      -4.62888611      -7.82083622
C       -4.67630188       3.86357977       5.32390637
O       -4.39787317       4.24730937       3.97891963
C       -3.54356922       3.44151130       3.27578646
C       -2.50903235       2.73493344       3.90654152
C       -1.63073209       1.91865469       3.17519393
C       -0.54706148       1.23504183       3.91675192
O       -0.41760354       1.37040140       5.12934210
C       -1.79595883       1.79595883       1.79595883
C       -2.80898542       2.52012609       1.15945454
C       -3.66884097       3.36492348       1.87940873
O       -4.54634273       4.02793582       1.06138208
C       -5.45867965       4.95039090       1.63863075
C       -6.24485678       5.63859768       0.52306815
O       -7.44310890       5.41779814       0.36598773
N       -5.46799350       6.53181325      -0.20176250
C       -5.89174597       7.40827154      -1.22034234
C       -7.20173671       7.46948228      -1.70215208
C       -7.55049860       8.37927564      -2.70742241
C       -6.58799236       9.23623455      -3.23207146
Br      -7.06167945      10.46830354      -4.58387299
C       -5.27843419       9.18913283      -2.76362133
C       -4.93241447       8.27483729      -1.76259834
H       -5.56321174       4.41575875       5.64959517
H       -3.85075718       4.14343816       5.98514279
H       -4.90113996       2.79420610       5.40161109
H       -2.35207650       2.82671641       4.97903198
H        0.15397272       0.60175988       3.35331634
H       -2.93887397       2.44178763       0.08069648
H       -4.93035544       5.73728833       2.19107022
H       -6.17812847       4.43508998       2.28556053
H       -4.48302225       6.55730748       0.03571956
H       -7.98273206       6.81874871      -1.32063930
H       -8.57586702       8.40568115      -3.06686718
H       -4.52198790       9.85786811      -3.16624283
H       -3.90475225       8.26008216      -1.40901102
C        5.41280728      -4.48142644       3.96955430
O        4.00497023      -4.42835671       4.19077523
C        3.29315655      -3.56223058       3.40547984
C        3.85378628      -2.36829322       2.92842782
C        3.11216328      -1.48060210       2.13181533
C        3.77184463      -0.22796015       1.69905045
O        4.92785731       0.02988450       2.01937423
C        1.79595883      -1.79595883       1.79595883
C        1.22446882      -2.97196457       2.29213266
C        1.94877061      -3.84697711       3.11742545
O        1.18738739      -4.90365186       3.54462139
C        1.76934305      -5.85881978       4.41953847
C        0.69969362      -6.86611550       4.84071349
O        0.74203542      -8.03126740       4.45359195
N       -0.23240453      -6.31885622       5.71159257
C       -1.28127588      -6.98479355       6.37615750
C       -1.57694147      -8.33967533       6.20633305
C       -2.62745699      -8.93502208       6.91478674
C       -3.38468970      -8.17556304       7.80128211
Br      -4.79773813      -8.98197623       8.76187190
C       -3.10382828      -6.82475079       7.98302319
C       -2.05654078      -6.23198593       7.26920828
H        5.78983020      -5.39036897       4.44836650
H        5.91103670      -3.62841312       4.43988832
H        5.65303085      -4.54153188       2.90239441
H        4.87368762      -2.09459049       3.18954679
H        3.19759189       0.48049926       1.08401088
H        0.19292477      -3.22175568       2.04667762
H        2.14006998      -5.38284515       5.33579885
H        2.57011852      -6.41272096       3.91593950
H       -0.14150053      -5.32565715       5.89189267
H       -1.01143304      -8.96768108       5.52459343
H       -2.83885847      -9.99030396       6.76323550
H       -3.68882480      -6.22600989       8.67642809
H       -1.85265624      -5.17682129       7.43165834
C       -0.00445707       0.01189536      -1.78238275
H       -0.66409135       0.67374010      -2.43557963
H        0.65740317      -0.63156657      -2.45157240
C       -0.90989263      -0.90692880      -0.91072765
C        0.90977584       0.90977584      -0.90977584
C       -0.00465871       1.77757030       0.00794375
H       -0.66225468       2.44313916      -0.64384735
H        0.64322798       2.43503045       0.67728295
C       -1.78241447       0.00034974      -0.00472694
H       -2.45427497      -0.65498947       0.64260836
H       -2.43311707       0.67328779      -0.65473579
C       -0.91132561       0.90220522       0.91563759
C       -0.01476271      -0.02253852       1.78660255
H       -0.67934791      -0.69751639       2.42135241
H        0.63392994       0.61504881       2.47327442
C        0.01484550      -1.77751727      -0.01636693
H        0.67870853      -2.42144646      -0.68295456
H       -0.62264859      -2.45592969       0.64226336
C        1.78714474       0.01002794       0.00389507
H        2.44202412       0.67113390       0.66197326
H        2.45385902      -0.65136977      -0.64189061
C        0.91606151      -0.90478549       0.90901405
