193
Properties=species:S:1:pos:R:3 pbc="F F F"
C        0.00000000       0.00000000       0.00000000
C       -0.97426210       5.27874109       1.16747589
C       -0.28737604       6.43612583       0.46701849
N        0.46183834       6.01882172      -0.70553150
N       -0.14088131       6.06238794      -1.90575383
C        0.82916613       5.77882323      -2.78237327
C        0.52330677       5.80703902      -4.23568703
C        2.05034664       5.47850737      -2.11842587
C        1.77399465       5.62152600      -0.77025600
C        2.62636125       5.43158064       0.43045618
N        3.28951487       5.12095016      -2.67910873
S        3.47647467       3.63496625      -3.44110106
O        2.87298276       3.67379072      -4.75704788
O        4.83567695       3.16891032      -3.24711034
C        2.46269032       2.53838008      -2.45112409
C        1.16122929       2.23144666      -2.86249166
C        0.36356406       1.41189912      -2.06346897
C        0.88156203       0.88156203      -0.88156203
C        2.19682983       1.14852034      -0.49626476
C        2.99609653       1.97727178      -1.28531794
S        4.25494219       6.36924376      -3.28594448
O        5.13946900       5.91364293      -4.33676003
O        3.45668888       7.56411034      -3.48561724
C        5.29102118       6.68986255      -1.86375245
C        6.45671817       5.93950104      -1.67715748
C        7.27126596       6.20073833      -0.57328251
C        6.91939939       7.20801209       0.32688791
Br       8.02167909       7.55465625       1.82294100
C        5.76404427       7.96627177       0.13134204
C        4.94890929       7.71446874      -0.97376093
H       -1.53940561       5.64351691       2.03096167
H       -0.24874225       4.54122237       1.52460457
H       -1.66882859       4.76522547       0.49498703
H        0.40563821       6.94556945       1.14478092
H       -1.02603025       7.17738922       0.14065792
H        1.41948181       5.99846501      -4.83224402
H       -0.20055627       6.59591070      -4.46656487
H        0.09245605       4.85143514      -4.55029562
H        2.12722092       4.80143470       1.17236001
H        2.85777877       6.39541963       0.89367161
H        3.57096912       4.94281066       0.17280229
H        0.75377651       2.63444442      -3.78629876
H       -0.65776399       1.19638069      -2.36950773
H        2.60444046       0.71583221       0.41418175
H        4.02251794       2.17931277      -0.98545813
H        6.74037212       5.16032579      -2.38348619
H        8.18011767       5.62099494      -0.42870584
H        5.49627338       8.75776254       0.82734675
H        4.05426774       8.31470877      -1.12934708
C       -4.14369130       3.00338469      -1.99669650
C       -5.22876677       2.44576553      -2.89873007
N       -5.20364623       0.99544664      -2.97799198
N       -5.97918058       0.28963066      -2.13771054
C       -5.86159825      -0.97714260      -2.55162178
C       -6.65356875      -2.03664357      -1.87582049
C       -4.93729388      -1.08282210      -3.62716390
C       -4.51087242       0.21151496      -3.86641918
C       -3.53860769       0.75769661      -4.84657462
N       -4.53048750      -2.23394785      -4.32513839
S       -3.59199802      -3.39966060      -3.56088336
O       -4.41772909      -4.20291751      -2.68317475
O       -2.70736602      -4.01057661      -4.53375499
C       -2.52034180      -2.43044338      -2.50140930
C       -2.84519342      -2.25842117      -1.15155301
C       -2.02867053      -1.46616309      -0.34409852
C       -0.88156203      -0.88156203      -0.88156203
C       -0.53143709      -1.09367333      -2.21650452
C       -1.35050249      -1.87562433      -3.03255944
S       -5.56444168      -2.81620170      -5.52948706
O       -5.41028241      -4.23961403      -5.73997553
O       -6.89113530      -2.25361492      -5.36166622
C       -4.85933966      -2.01860496      -6.96669157
C       -3.79917552      -2.63046940      -7.64373178
C       -3.25910443      -2.01252239      -8.77365997
C       -3.78378085      -0.79791907      -9.21882365
Br      -3.04616466       0.03812781     -10.74535749
C       -4.85160352      -0.19596810      -8.55140238
C       -5.40027971      -0.81184564      -7.42501361
H       -4.21405873       4.09484053      -1.95393143
H       -3.14628409       2.74246614      -2.36405760
H       -4.23681952       2.61345715      -0.97804748
H       -5.13025392       2.83959190      -3.91576471
H       -6.21888229       2.73954808      -2.53136683
H       -6.82318584      -2.89383094      -2.53317405
H       -7.63443214      -1.65600310      -1.57148407
H       -6.13296873      -2.38344697      -0.97777111
H       -2.81725416       1.41988827      -4.35892971
H       -4.05641594       1.32364593      -5.62675678
H       -2.96934363      -0.04301240      -5.32862146
H       -3.73296978      -2.71760456      -0.72394536
H       -2.29689255      -1.30961532       0.69838344
H        0.37489019      -0.65456173      -2.62641936
H       -1.07241244      -2.04371800      -4.07115840
H       -3.39454688      -3.58369838      -7.30593884
H       -2.43735717      -2.48874503      -9.30371625
H       -5.26655398       0.74494196      -8.90507715
H       -6.23998182      -0.34528919      -6.91305258
C       -4.26890422      -2.94430617       1.81240505
C       -5.36258143      -2.38170418       2.70085405
N       -5.30280772      -0.93500028       2.81838413
N       -6.03812333      -0.18821800       1.97735512
C       -5.89929232       1.06418370       2.42688663
C       -6.64634997       2.16067970       1.75900315
C       -5.00086645       1.11853905       3.52787439
C       -4.61372141      -0.19208473       3.74413997
C       -3.68139663      -0.78799182       4.73408089
N       -4.58331151       2.24066048       4.26560176
S       -3.59606049       3.40057522       3.55590627
O       -4.37809960       4.24698640       2.67873536
O       -2.72181807       3.96346535       4.56641419
C       -2.52212654       2.43098204       2.49908590
C       -2.81604688       2.30169884       1.13742188
C       -1.99914512       1.50919512       0.33059191
C       -0.88156203       0.88156203       0.88156203
C       -0.56098224       1.05062893       2.23000376
C       -1.38090934       1.83268061       3.04509631
S       -5.63313238       2.81889653       5.45810152
O       -5.44849603       4.23203541       5.70934052
O       -6.96883934       2.29540222       5.24217489
C       -4.98603714       1.96710696       6.89149208
C       -3.92866745       2.53387588       7.61083337
C       -3.43396078       1.87368757       8.73763844
C       -4.00061830       0.66224314       9.13766213
Br      -3.32432512      -0.23107833      10.66014755
C       -5.06564035       0.10533656       8.42799709
C       -5.56909083       0.76359073       7.30445740
H       -4.36575516      -4.03213192       1.73952639
H       -3.27509131      -2.71877881       2.21156306
H       -4.32562830      -2.52641840       0.80219995
H       -5.30053306      -2.80358724       3.70948091
H       -6.34993968      -2.64026330       2.30102466
H       -6.81122743       3.00506245       2.43390096
H       -7.62829949       1.81348330       1.42013651
H       -6.09397562       2.51647082       0.88374037
H       -2.96461737      -1.45614108       4.24781932
H       -4.23346830      -1.35987212       5.48593061
H       -3.10475472      -0.01480924       5.25103201
H       -3.68049920       2.79447642       0.69954407
H       -2.24406788       1.38612051      -0.72206397
H        0.32297682       0.57787597       2.65119176
H       -1.12573175       1.96713544       4.09442164
H       -3.49138780       3.48451816       7.30827814
H       -2.61446696       2.31482123       9.30053026
H       -5.51333571      -0.83312892       8.74648238
H       -6.40675306       0.33212516       6.75944538
C       -1.33328450      -5.26894595      -0.79865834
C       -0.67175747      -6.42403088      -0.07054210
N        0.16723779      -5.98702202       1.03193175
N       -0.36525417      -5.92822813       2.26428649
C        0.66898873      -5.65397503       3.06739888
C        0.44813776      -5.58328953       4.53460553
C        1.86376109      -5.46346305       2.32005574
C        1.50098383      -5.66469375       1.00009906
C        2.29041215      -5.59231595      -0.25524239
N        3.15175196      -5.14887156       2.78895023
S        3.46558025      -3.63641236       3.45054937
O        2.93939615      -3.56641293       4.79801227
O        4.83480717      -3.26270352       3.15418693
C        2.45780119      -2.53877453       2.45561876
C        1.20190082      -2.13334725       2.91991953
C        0.40537225      -1.31394705       2.11961285
C        0.88156203      -0.88156203       0.88156203
C        2.15498135      -1.24650903       0.44012455
C        2.95200741      -2.07573147       1.23094737
S        4.08033866      -6.41617260       3.41361917
O        5.04916327      -5.95572816       4.38498054
O        3.23003350      -7.54901173       3.72737123
C        5.01144940      -6.87581276       1.95737402
C        6.20404847      -6.20692715       1.66240107
C        6.93639984      -6.57663951       0.53224744
C        6.47668500      -7.60993319      -0.28609462
Br       7.46798309      -8.10351763      -1.81810639
C        5.29448176      -8.28680233       0.01768991
C        4.56109293      -7.92639039       1.14965564
H       -1.96769505      -5.64725439      -1.60640970
H       -0.59017207      -4.59642398      -1.23837635
H       -1.95742325      -4.67883205      -0.11999895
H       -0.04925000      -7.01028794      -0.75461121
H       -1.42998098      -7.10122245       0.33945957
H        1.36585265      -5.79368792       5.09065026
H       -0.30361213      -6.31411247       4.85141896
H        0.09035490      -4.58796412       4.81586778
H        1.78426114      -4.97609710      -1.00406263
H        2.44020885      -6.59236863      -0.67305070
H        3.27426245      -5.14644603      -0.07973099
H        0.82777564      -2.45966965       3.88707441
H       -0.58259942      -1.02198495       2.46873890
H        2.53170124      -0.88986026      -0.51547059
H        3.94616884      -2.35421676       0.88690324
H        6.57167962      -5.40774333       2.30476114
H        7.86598549      -6.06035227       0.30348069
H        4.94260468      -9.09862245      -0.61453796
H        3.64517947      -8.46333158       1.38981255
