193
Properties=species:S:1:pos:R:3 pbc="F F F"
C        0.00000000       0.00000000       0.00000000
C        0.88253380       0.88253380      -0.88253380
C        0.29684863       1.75307926      -1.79752757
C        1.11722555       2.54433764      -2.61477663
C        2.51358943       2.46097030      -2.52861565
C        3.08165021       1.59784345      -1.57971536
C        2.27141386       0.80511113      -0.76614381
C        3.33723634       3.34483084      -3.35415304
C        3.25123241       4.72682560      -3.42624616
C        4.24947753       5.15533914      -4.32447974
N        4.93015924       4.10620408      -4.79241644
N        4.35704103       2.99501212      -4.23893914
C        4.82915829       1.68401066      -4.63368185
N        4.18856728       0.58714316      -4.18759980
C        4.66898082      -0.61241009      -4.57628245
C        5.76845126      -0.75166196      -5.39654269
C        6.37345321       0.41084426      -5.82435437
N        5.90609742       1.62687016      -5.44856702
C        7.59354202       0.34186447      -6.72976757
F        7.41298612       0.97630210      -7.92334751
F        8.70663539       0.89460113      -6.16847543
F        7.95159275      -0.93861721      -7.05009752
C        3.94161483      -1.76487365      -4.05797728
C        2.78595350      -1.91471305      -3.31925700
C        2.60624256      -3.30269721      -3.11357037
C        3.64988207      -3.92091064      -3.75857240
O        4.46512604      -3.00036060      -4.32891076
C        4.55274388       6.52744561      -4.74466820
C        5.22111127       6.76787886      -5.95637902
C        5.48749360       8.07167252      -6.37971438
C        5.09714101       9.14805433      -5.58926297
C        4.44302354       8.93167401      -4.37788196
C        4.17236108       7.62541593      -3.95747637
H       -0.78611948       1.82754935      -1.88449617
H        0.64439872       3.22185937      -3.32432336
H        4.16588748       1.53863579      -1.47175168
H        2.73219320       0.13496240      -0.05683507
H        2.54285519       5.34076884      -2.88260721
H        6.13581776      -1.72735931      -5.69088771
H        2.15208924      -1.11219345      -2.96847713
H        1.80693308      -3.79421185      -2.57211184
H        3.94333834      -4.95231220      -3.88996693
H        5.52993464       5.93146805      -6.58366548
H        6.00110120       8.23134458      -7.32458391
H        4.14200550       9.76912552      -3.75410421
H        3.67024661       7.48293363      -3.00402045
C        5.36835507      10.49387238      -6.02379342
C        5.59549686      11.62099500      -6.38771266
Br       5.96276591      13.44345694      -6.97613931
C       -0.88253380      -0.88253380      -0.88253380
C       -2.18000778      -0.48025068      -1.18719700
C       -2.98653571      -1.30718716      -1.98261695
C       -2.50687768      -2.53331054      -2.46298716
C       -1.18688683      -2.90510945      -2.16721273
C       -0.38035636      -2.08894562      -1.37336681
C       -3.35510844      -3.34165144      -3.33946035
C       -3.96765649      -2.92510482      -4.51154285
C       -4.66055834      -4.03692717      -5.03181090
N       -4.49467395      -5.09704004      -4.23706577
N       -3.73422993      -4.67459784      -3.18216452
C       -3.45939484      -5.59183652      -2.09561944
N       -2.81747486      -5.14668409      -0.99915129
C       -2.57746733      -6.03930398      -0.01608186
C       -2.95835239      -7.36221739      -0.09276221
C       -3.61853614      -7.75142920      -1.23868651
N       -3.87275681      -6.87089640      -2.23788138
C       -4.06947364      -9.19486662      -1.40083379
F       -5.41602967      -9.32022603      -1.57638002
F       -3.48641473      -9.82003937      -2.46325785
F       -3.77070300      -9.97464559      -0.31772448
C       -1.87352317      -5.50461515       1.14341987
C       -1.46981959      -4.23989761       1.51921975
C       -0.80739047      -4.37187416       2.76214891
C       -0.86568273      -5.70613029       3.08426919
O       -1.50408698      -6.40016869       2.11057947
C       -5.47404121      -4.10021727      -6.25059922
C       -6.46081530      -5.08920140      -6.39535245
C       -7.26091061      -5.13920253      -7.53876737
C       -7.07425162      -4.20626668      -8.55394001
C       -6.09312858      -3.22362729      -8.43582364
C       -5.29582955      -3.17160596      -7.28781786
H       -2.57358865       0.46563226      -0.81796967
H       -3.99857539      -0.97806419      -2.21394187
H       -0.78018039      -3.84006650      -2.55602807
H        0.62546101      -2.40552679      -1.14392488
H       -3.90828692      -1.92748259      -4.93046173
H       -2.75004981      -8.05924509       0.70994874
H       -1.63317635      -3.33145864       0.95626207
H       -0.35355870      -3.58875267       3.35747830
H       -0.51153648      -6.29052521       3.92106862
H       -6.61596409      -5.82398380      -5.60512027
H       -8.02181197      -5.91108915      -7.62412858
H       -5.93940598      -2.49681582      -9.22901342
H       -4.53080490      -2.40205669      -7.22433909
C       -7.89896520      -4.25362214      -9.73343353
C       -8.58966282      -4.29328234     -10.72125936
Br      -9.70646246      -4.35740952     -12.31849017
C       -0.88253380       0.88253380       0.88253380
C       -1.93960906       0.31733499       1.59051142
C       -2.75372808       1.14022266       2.38238909
C       -2.52273713       2.52037321       2.46006504
C       -1.43465129       3.06372700       1.76083073
C       -0.62301737       2.25141471       0.96823671
C       -3.35479628       3.33833084       3.34309311
C       -3.58468467       3.12579239       4.69382711
C       -4.42209337       4.16894600       5.13825705
N       -4.70437636       4.99585581       4.12854759
N       -4.09222726       4.47754690       3.02121813
C       -4.29406963       5.11581804       1.73696312
N       -3.79632274       4.54102776       0.62595975
C       -4.00346666       5.17593722      -0.54655071
C       -4.69214424       6.36633819      -0.64515044
C       -5.18243275       6.89751125       0.52870784
N       -4.98855690       6.27530758       1.71767012
C       -5.95117459       8.20960605       0.50439341
F       -7.21852746       8.09856250       0.99554576
F       -5.34700351       9.19563759       1.22707084
F       -6.09388687       8.72396453      -0.75477833
C       -3.43672772       4.51290068      -1.71490994
C       -2.80280508       3.30407305      -1.91638069
C       -2.46612129       3.23982522      -3.28883079
C       -2.93485243       4.40284259      -3.85015120
O       -3.51926527       5.18116900      -2.90675806
C       -4.95715202       4.38028036       6.48742531
C       -6.11652673       5.14957402       6.67926840
C       -6.65088721       5.33145039       7.95654290
C       -6.02409532       4.75404020       9.05632278
C       -4.86626516       3.99652440       8.88978995
C       -4.33495421       3.81097348       7.60932568
H       -2.13975203      -0.75183062       1.53800463
H       -3.57554518       0.68324362       2.93179265
H       -1.21527295       4.13037292       1.83062908
H        0.19658384       2.69577986       0.42479465
H       -3.18294192       2.30586356       5.27742575
H       -4.84135319       6.85725185      -1.59925888
H       -2.60504175       2.56034888      -1.15701770
H       -1.95533168       2.43839879      -3.80889740
H       -2.92404629       4.80838967      -4.85144290
H       -6.61596175       5.60511179       5.82399463
H       -7.55266551       5.92656266       8.07780153
H       -4.36965009       3.54898736       9.74659777
H       -3.42542434       3.22461506       7.50716128
C       -6.57362337       4.93779866      10.37459883
C       -7.03385311       5.09169637      11.47865503
Br      -7.77800568       5.34053596      13.26382052
C        0.88253380      -0.88253380       0.88253380
C        0.58266181      -2.23388572       1.03090793
C        1.38887557      -3.02951154       1.85795271
C        2.48149652      -2.47961860       2.54206026
C        2.78188782      -1.12206060       2.35526059
C        1.98180457      -0.32399003       1.53687420
C        3.33586984      -3.35206677       3.34828361
C        3.96376741      -4.51409124       2.92644552
C        4.69709548      -5.00786931       4.02433163
N        4.54486462      -4.20417746       5.07973768
N        3.68569022      -3.21397101       4.69133106
C        3.25462321      -2.22979961       5.66242798
N        2.31556329      -1.32803758       5.31970938
C        1.95095994      -0.42661172       6.25528151
C        2.49385401      -0.39713285       7.52234513
C        3.44453609      -1.35270306       7.81141269
N        3.82402453      -2.26981406       6.88769601
C        4.09300713      -1.38541306       9.18675386
F        3.90449196      -2.56684138       9.84130238
F        5.44087808      -1.18256175       9.14627211
F        3.61061827      -0.42262278      10.02983202
C        0.93676940       0.52959567       5.82754473
C        0.17325140       0.66962090       4.68686695
C       -0.62678798       1.82237854       4.86628225
C       -0.32228403       2.30583332       6.11566117
O        0.62470836       1.53435134       6.70331919
C        5.51957906      -6.22075975       4.08451888
C        5.79458301      -6.83191274       5.31887340
C        6.55125313      -8.00378277       5.38384461
C        7.04958271      -8.57010474       4.21477086
C        6.79830282      -7.97374596       2.98053073
C        6.03603098      -6.80278801       2.91643438
H       -0.26596157      -2.67863431       0.51325330
H        1.14279690      -4.08524038       1.96254417
H        3.64605662      -0.67811284       2.85210549
H        2.22207619       0.72197337       1.42388785
H        3.89142876      -4.94150833       1.93329415
H        2.18556597       0.34006089       8.25384108
H        0.19756102       0.01555017       3.82636207
H       -1.34703697       2.24313342       4.17500346
H       -0.66702738       3.14879416       6.69681461
H        5.40761271      -6.39691352       6.24054193
H        6.74521491      -8.46064100       6.35117379
H        7.19091018      -8.40894353       2.06538151
H        5.86283638      -6.35150230       1.94286200
C        7.82843063      -9.77965253       4.27793770
C        8.48071577     -10.79264881       4.33083994
Br       9.53540566     -12.43057811       4.41637838
