165
Properties=species:S:1:pos:R:3 pbc="F F F"
C        0.00000000       0.00000000       0.00000000
C        0.88202850       0.88202850      -0.88202850
C        1.29837507       0.41611135      -2.13016978
C        2.09016306       1.22701237      -2.94743242
C        2.47228488       2.49578996      -2.49743225
C        2.03596084       2.96884540      -1.25404317
C        1.24654560       2.15342107      -0.44077939
S        3.38748070       3.58105046      -3.57746810
O        3.05056965       3.18188664      -4.93232113
O        3.11233249       4.94341958      -3.16480029
N        5.00687893       3.23550966      -3.29112505
C        5.62699779       2.29329139      -4.18144879
C        6.16775829       2.80084827      -5.37104754
C        6.75056121       1.94692184      -6.30957270
C        6.78772148       0.57220490      -6.07406256
Cl       7.52783700      -0.42860444      -7.27066487
C        6.22813095       0.05578003      -4.89952583
Cl       6.22621579      -1.63597655      -4.54636293
C        5.63858015       0.91374545      -3.96052325
S        5.56799368       3.31076081      -1.71062018
O        4.99229114       4.43454943      -1.00722564
O        5.51694085       1.98524727      -1.12766441
C        7.28873442       3.72259158      -1.94276962
C        8.28684220       2.83572547      -1.52711761
C        9.62795591       3.18059654      -1.70760623
C        9.95750311       4.40158039      -2.29944645
C        8.95988065       5.28708568      -2.70997285
C        7.61722968       4.95223863      -2.52608726
H        0.99580454      -0.56880366      -2.47992891
H        2.37951353       0.86892211      -3.93289955
H        2.29328791       3.97061023      -0.91169385
H        0.91132888       2.52400038       0.52501839
H        6.13189424       3.86910319      -5.58189906
H        7.16499019       2.36145924      -7.22606525
H        5.19583871       0.48490585      -3.06475893
H        8.03761735       1.88770732      -1.05415935
H       10.40762754       2.49791147      -1.37683706
H        9.21941099       6.24201169      -3.16157816
H        6.84037305       5.65304589      -2.82745587
C       11.34178247       4.75428449      -2.48102420
C       12.50111643       5.04967418      -2.63309557
Br      14.37566139       5.52729433      -2.87898211
C       -0.88202850      -0.88202850      -0.88202850
C       -1.32608954      -2.11556812      -0.40299854
C       -2.14780170      -2.91706491      -1.19974125
C       -2.50474743      -2.48032902      -2.48043064
C       -2.07515395      -1.23339387      -2.95030159
C       -1.25260954      -0.43758454      -2.15055198
S       -3.64281155      -3.44294437      -3.46024333
O       -4.45395519      -4.19293282      -2.51788942
O       -4.30319085      -2.53738413      -4.37997737
N       -2.68635426      -4.51371769      -4.33344169
C       -2.51144691      -5.82290928      -3.76738177
C       -3.48663918      -6.78362312      -4.06939180
C       -3.41359631      -8.06768748      -3.52577196
C       -2.36956437      -8.40181474      -2.66260984
Cl      -2.33283306     -10.00770691      -2.02935747
C       -1.40560624      -7.44032329      -2.33750728
Cl      -0.09216691      -7.77815059      -1.26628467
C       -1.48310027      -6.14988119      -2.87986740
S       -1.43825485      -3.88641618      -5.26470364
O       -1.84403568      -2.66591689      -5.92411365
O       -0.21068528      -3.92332053      -4.49584673
C       -1.28935820      -5.10360358      -6.56113383
C       -0.10728350      -5.83660347      -6.70579831
C       -0.00598578      -6.77704160      -7.73313130
C       -1.08143645      -6.97589480      -8.60119870
C       -2.25889517      -6.24045698      -8.45758703
C       -2.36463693      -5.29347056      -7.43744807
H       -1.05128233      -2.45069985       0.59505239
H       -2.51764341      -3.86012438      -0.80356740
H       -2.38080413      -0.86558502      -3.92920285
H       -0.91967304       0.52941460      -2.52005242
H       -4.31978855      -6.53662585      -4.72648209
H       -4.18044457      -8.79850426      -3.77356585
H       -0.73118648      -5.41700755      -2.59730946
H        0.73937069      -5.67840709      -6.04044762
H        0.91530115      -7.34244020      -7.85523703
H       -3.09149544      -6.39013441      -9.14137099
H       -3.27577711      -4.70550043      -7.33959726
C       -0.97150660      -7.94471226      -9.66087231
C       -0.87944034      -8.75609689     -10.54834895
Br      -0.73057700     -10.06803721     -11.98332362
C       -0.88202850       0.88202850       0.88202850
C       -1.34009759       0.39662713       2.10793148
C       -2.13205372       1.20690405       2.92565009
C       -2.47233930       2.49517113       2.49799666
C       -1.99425001       2.98709988       1.27749952
C       -1.20487260       2.17226462       0.46360884
S       -3.38750723       3.57636577       3.58212625
O       -3.09378996       3.13654603       4.93444142
O       -3.06958159       4.94107136       3.20989941
N       -5.00719890       3.27783031       3.24848442
C       -5.67155710       2.33003943       4.10014143
C       -6.22910798       2.82200918       5.28853695
C       -6.85523665       1.96037863       6.19144046
C       -6.91963709       0.59305789       5.92129396
Cl      -7.71287884      -0.41769885       7.07471745
C       -6.34385188       0.09139902       4.74818591
Cl      -6.37392623      -1.59090642       4.35358236
C       -5.71087042       0.95691133       3.84506711
S       -5.52721653       3.40488312       1.65727502
O       -4.90748809       4.53073506       0.99584306
O       -5.49370930       2.09291971       1.04322353
C       -7.24275229       3.85329616       1.85804717
C       -8.25135579       3.00155407       1.39677542
C       -9.58782705       3.37493320       1.55339842
C       -9.90239674       4.58907919       2.16705402
C       -8.89418468       5.43959651       2.62315799
C       -7.55585222       5.07627928       2.46342406
H       -1.07001761      -0.60357393       2.44048612
H       -2.45413437       0.83245381       3.89474701
H       -2.21889071       4.00284743       0.95385385
H       -0.83713727       2.55759293      -0.48441934
H       -6.17276673       3.88367477       5.52645500
H       -7.28203723       2.36283958       7.10763787
H       -5.25662908       0.53896027       2.94991415
H       -8.01342508       2.05933202       0.90672693
H      -10.37530479       2.71982558       1.18724570
H       -9.14172232       6.38948995       3.09178856
H       -6.77002728       5.75027492       2.80057260
C      -11.28184648       4.97132440       2.32392029
C      -12.43713563       5.29145477       2.45529578
Br     -14.30514048       5.80907850       2.66771885
C        0.88202850      -0.88202850       0.88202850
C        0.92313336      -2.25973786       0.66178498
C        1.74245552      -3.06749317       1.45465916
C        2.50338848      -2.48669242       2.47542619
C        2.47627784      -1.10200509       2.68056648
C        1.65422022      -0.30001247       1.88651337
S        3.63599373      -3.49165845       3.41834708
O        4.00120388      -4.60407442       2.55949911
O        4.68474404      -2.62185864       3.91394967
N        2.74290725      -4.07285710       4.71774928
C        2.16192385      -5.37791223       4.56190187
C        2.96407627      -6.47725437       4.89832347
C        2.49018821      -7.78064681       4.73622072
C        1.21132252      -7.99955034       4.22311608
Cl       0.68237003      -9.63435210       4.05317530
C        0.41388845      -6.90713916       3.86240920
Cl      -1.17425313      -7.10168808       3.20916722
C        0.89295133      -5.59915248       4.02074505
S        1.93751941      -2.96419510       5.68766016
O        2.74252659      -1.78405208       5.90748754
O        0.57103065      -2.83544927       5.22337262
C        1.88685363      -3.80799762       7.25924437
C        0.65962147      -4.16073843       7.82932539
C        0.64015145      -4.81102616       9.06498107
C        1.84082948      -5.10207159       9.71562887
C        3.06448190      -4.74560882       9.14684846
C        3.09136519      -4.08883355       7.91535683
H        0.33437356      -2.70831595      -0.13575972
H        1.79467911      -4.13483839       1.25181769
H        3.09581317      -0.63458803       3.44519079
H        1.63473471       0.77480488       2.05038103
H        3.97231116      -6.32758653       5.28299880
H        3.12870552      -8.61976339       5.00404578
H        0.25985309      -4.76911690       3.71653350
H       -0.28056468      -3.92636380       7.33368491
H       -0.31267871      -5.07847657       9.51657821
H        3.99797486      -4.96450000       9.66052598
H        4.04558639      -3.79247426       7.48281416
C        1.81586307      -5.77025110      10.99097699
C        1.79495370      -6.32985143      12.05908104
Br       1.76114502      -7.23467785      13.78611496
