178
Properties=species:S:1:pos:R:3 pbc="F F F"
C        1.79193253       1.79193253      -1.79193253
C        2.20827910       1.32601538      -3.04007380
C        3.00006709       2.13691639      -3.85733645
C        3.38218891       3.40569398      -3.40733628
C        2.94586486       3.87874942      -2.16394719
C        2.15644962       3.06332510      -1.35068341
S        4.29738473       4.49095448      -4.48737212
O        3.96047367       4.09179067      -5.84222516
O        4.02223651       5.85332360      -4.07470432
N        5.91678295       4.14541368      -4.20102907
C        6.53690181       3.20319541      -5.09135281
C        7.07766231       3.71075229      -6.28095157
C        7.66046523       2.85682586      -7.21947672
C        7.69762550       1.48210893      -6.98396658
Cl       8.43774103       0.48129959      -8.18056889
C        7.13803498       0.96568406      -5.80942985
Cl       7.13611982      -0.72607253      -5.45626695
C        6.54848417       1.82364948      -4.87042728
S        6.47789770       4.22066484      -2.62052421
O        5.90219516       5.34445346      -1.91712967
O        6.42684487       2.89515130      -2.03756844
C        8.19863844       4.63249560      -2.85267364
C        9.19674623       3.74562949      -2.43702164
C       10.53785993       4.09050056      -2.61751025
C       10.86740714       5.31148441      -3.20935047
Br      12.68460702       5.77449346      -3.44771498
C        9.86978468       6.19698970      -3.61987687
C        8.52713370       5.86214265      -3.43599128
H        1.90570857       0.34110037      -3.38983293
H        3.28941756       1.77882614      -4.84280357
H        3.20319193       4.88051426      -1.82159787
H        1.82123290       3.43390440      -0.38488563
H        7.04179827       4.77900722      -6.49180308
H        8.07489422       3.27136326      -8.13596927
H        6.10574274       1.39480987      -3.97466296
H        8.94752137       2.79761135      -1.96406337
H       11.31753157       3.40781550      -2.28674108
H       10.12931501       7.15191572      -4.07148218
H        7.75027707       6.56294992      -3.73735989
C       -1.79193253      -1.79193253      -1.79193253
C       -2.16226436      -3.06283210      -1.34927182
C       -2.98373039      -3.86541637      -2.14517317
C       -3.41461075      -3.39130085      -3.38930757
C       -3.05888094      -2.10805089      -3.82162965
C       -2.23621298      -1.31123348      -3.02301167
S       -4.55310536      -4.36089597      -4.36171000
O       -5.28983434      -5.18474042      -3.41991474
O       -5.29072669      -3.44732534      -5.21221240
N       -3.59172363      -5.35097360      -5.32052848
C       -3.33722952      -6.67386969      -4.82035082
C       -4.28347491      -7.66292083      -5.12297044
C       -4.13269878      -8.96426477      -4.63980426
C       -3.03864973      -9.28823626      -3.83681503
Cl      -2.90664834     -10.91617641      -3.27678476
C       -2.10263654      -8.29987335      -3.51063900
Cl      -0.73038804      -8.62445975      -2.51146646
C       -2.25806849      -6.99241186      -3.99208058
S       -2.41320062      -4.63087126      -6.27501487
O       -2.89850970      -3.40271398      -6.86255461
O       -1.15259350      -4.64614553      -5.56082558
C       -2.27031009      -5.78474882      -7.62874877
C       -1.06594733      -6.45841051      -7.85503952
C       -0.97039170      -7.34945735      -8.92602170
C       -2.07360238      -7.55865354      -9.75598610
Br      -1.93714905      -8.76326988     -11.20639653
C       -3.27350645      -6.88231150      -9.53083330
C       -3.37408913      -5.98462105      -8.46655746
H       -1.83005263      -3.42725139      -0.37933785
H       -3.29583401      -4.83963008      -1.77558318
H       -3.42241204      -1.71317442      -4.76971760
H       -1.96078200      -0.31586644      -3.36337450
H       -5.15431976      -7.42532575      -5.73296306
H       -4.87827349      -9.71697690      -4.88697637
H       -1.52596083      -6.23976436      -3.70949038
H       -0.19830027      -6.29131594      -7.21957989
H       -0.03239229      -7.86822626      -9.11146960
H       -4.12829315      -7.03951064     -10.18490912
H       -4.30397470      -5.44185685      -8.30475533
C       -1.79193253       1.79193253       1.79193253
C       -2.78691519       1.20904948       2.57840360
C       -3.58370306       2.01049061       3.40012625
C       -3.38584571       3.39576478       3.41360868
C       -2.37337830       3.97551207       2.63967112
C       -1.58152039       3.16997782       1.81895993
S       -4.32060242       4.41390252       4.54120639
O       -4.68291152       3.55615747       5.65542050
O       -3.53845784       5.60556371       4.80624287
N       -5.71352171       4.84422481       3.70547918
C       -6.87339917       4.02654741       3.93150346
C       -7.68490215       4.35941416       5.02504987
C       -8.80730395       3.59044354       5.33902032
C       -9.12386647       2.47079861       4.56903594
Cl     -10.52808871       1.56591510       5.00560570
C       -8.30445034       2.11844874       3.49024981
Cl      -8.62690815       0.73884658       2.50055951
C       -7.17485413       2.88835491       3.17935189
S       -5.54519791       5.57194053       2.20194831
O       -4.44937151       6.51441538       2.19999141
O       -5.63114152       4.55547599       1.17294710
C       -7.02673502       6.56102106       2.09605161
C       -7.97466092       6.30416358       1.10057285
C       -9.12257464       7.09601034       1.02728578
C       -9.31204999       8.13109110       1.94510094
Br     -10.86614977       9.20200423       1.83866147
C       -8.36285638       8.38837020       2.93542467
C       -7.20946755       7.60558732       3.01021277
H       -2.93549866       0.13118606       2.56995715
H       -4.33223585       1.54293051       4.03588091
H       -2.18365659       5.04779484       2.67385263
H       -0.79745098       3.62452037       1.21805158
H       -7.44403778       5.21896453       5.64960626
H       -9.42411559       3.86652053       6.19159063
H       -6.54563794       2.58266751       2.34691012
H       -7.82793127       5.50687158       0.37439324
H       -9.85781198       6.90584814       0.24842803
H       -8.50806497       9.20173293       3.64291501
H       -6.45983611       7.82080509       3.76994568
C        1.79193253      -1.79193253       1.79193253
C        1.84783887      -3.16710345       1.55942595
C        2.66729682      -3.97461439       2.35240871
C        3.41339463      -3.39633847       3.38548606
C        3.37155541      -2.01392143       3.60308464
C        2.54942652      -1.21218689       2.80884473
S        4.54655928      -4.39955574       4.32959631
O        4.92995193      -5.50055274       3.46398482
O        5.58259597      -3.52478813       4.84288033
N        3.64699719      -5.00096778       5.61526073
C        3.07960244      -6.30980596       5.44204164
C        3.88879254      -7.40480229       5.77577134
C        3.42852606      -8.71093553       5.59730622
C        2.15651632      -8.93681509       5.07036960
Cl       1.64433654     -10.57476279       4.88051018
C        1.35233167      -7.84848046       4.71233676
Cl      -0.22786547      -8.05155017       4.04262954
C        1.81776452      -6.53767087       4.88712553
S        2.82247839      -3.90880060       6.58780776
O        3.61444852      -2.72339831       6.82593145
O        1.45917929      -3.78831869       6.11206663
C        2.76519951      -4.76757601       8.15103216
C        1.53610441      -5.13685527       8.70643768
C        1.51131112      -5.79872935       9.93583028
C        2.70860632      -6.08474987      10.59488583
Br       2.66858339      -6.97765387      12.26057820
C        3.93407550      -5.71179393      10.04078182
C        3.96618297      -5.04340336       8.81568131
H        1.27062120      -3.61365624       0.75236442
H        2.73128184      -5.03950688       2.14025855
H        3.97967380      -1.54794302       4.37768725
H        2.51846570      -0.13916045       2.98239677
H        4.89201730      -7.24944860       6.17114266
H        4.07231148      -9.54659619       5.86331909
H        1.17981641      -5.71070308       4.58469608
H        0.59837985      -4.90654438       8.20427186
H        0.55689245      -6.07910419      10.37609151
H        4.86479801      -5.92685153      10.56106337
H        4.92154925      -4.73428609       8.39475155
C       -0.00445707       0.01189536      -1.78238275
H       -0.66409135       0.67374010      -2.43557963
H        0.65740317      -0.63156657      -2.45157240
C       -0.90989263      -0.90692880      -0.91072765
C        0.90977584       0.90977584      -0.90977584
C       -0.00465871       1.77757030       0.00794375
H       -0.66225468       2.44313916      -0.64384735
H        0.64322798       2.43503045       0.67728295
C       -1.78241447       0.00034974      -0.00472694
H       -2.45427497      -0.65498947       0.64260836
H       -2.43311707       0.67328779      -0.65473579
C       -0.91132561       0.90220522       0.91563759
C       -0.01476271      -0.02253852       1.78660255
H       -0.67934791      -0.69751639       2.42135241
H        0.63392994       0.61504881       2.47327442
C        0.01484550      -1.77751727      -0.01636693
H        0.67870853      -2.42144646      -0.68295456
H       -0.62264859      -2.45592969       0.64226336
C        1.78714474       0.01002794       0.00389507
H        2.44202412       0.67113390       0.66197326
H        2.45385902      -0.65136977      -0.64189061
C        0.91606151      -0.90478549       0.90901405
