157
Properties=species:S:1:pos:R:3 pbc="F F F"
C        0.00000000       0.00000000       0.00000000
C        0.88202850       0.88202850      -0.88202850
C        1.29837507       0.41611135      -2.13016978
C        2.09016306       1.22701237      -2.94743242
C        2.47228488       2.49578996      -2.49743225
C        2.03596084       2.96884540      -1.25404317
C        1.24654560       2.15342107      -0.44077939
S        3.38748070       3.58105046      -3.57746810
O        3.05056965       3.18188664      -4.93232113
O        3.11233249       4.94341958      -3.16480029
N        5.00687893       3.23550966      -3.29112505
C        5.62699779       2.29329139      -4.18144879
C        6.16775829       2.80084827      -5.37104754
C        6.75056121       1.94692184      -6.30957270
C        6.78772148       0.57220490      -6.07406256
Cl       7.52783700      -0.42860444      -7.27066487
C        6.22813095       0.05578003      -4.89952583
Cl       6.22621579      -1.63597655      -4.54636293
C        5.63858015       0.91374545      -3.96052325
S        5.56799368       3.31076081      -1.71062018
O        4.99229114       4.43454943      -1.00722564
O        5.51694085       1.98524727      -1.12766441
C        7.28873442       3.72259158      -1.94276962
C        8.28684220       2.83572547      -1.52711761
C        9.62795591       3.18059654      -1.70760623
C        9.95750311       4.40158039      -2.29944645
Br      11.77470300       4.86458943      -2.53781096
C        8.95988065       5.28708568      -2.70997285
C        7.61722968       4.95223863      -2.52608726
H        0.99580454      -0.56880366      -2.47992891
H        2.37951353       0.86892211      -3.93289955
H        2.29328791       3.97061023      -0.91169385
H        0.91132888       2.52400038       0.52501839
H        6.13189424       3.86910319      -5.58189906
H        7.16499019       2.36145924      -7.22606525
H        5.19583871       0.48490585      -3.06475893
H        8.03761735       1.88770732      -1.05415935
H       10.40762754       2.49791147      -1.37683706
H        9.21941099       6.24201169      -3.16157816
H        6.84037305       5.65304589      -2.82745587
C       -0.88202850      -0.88202850      -0.88202850
C       -1.31441014      -2.12180360      -0.40844246
C       -2.13608883      -2.92347098      -1.20504803
C       -2.50474699      -2.48049538      -2.48026472
C       -2.08686060      -1.22748659      -2.94450222
C       -1.26429047      -0.43152113      -2.14493446
S       -3.64292060      -3.44419417      -3.45888448
O       -4.44248368      -4.20610004      -2.51619370
O       -4.31571439      -2.53694448      -4.36789349
N       -2.68520589      -4.50244118      -4.34586656
C       -2.49753849      -5.81422157      -3.78997790
C       -3.46822374      -6.77951020      -4.09192017
C       -3.38274032      -8.06670892      -3.55760650
C       -2.33058150      -8.39954315      -2.70386429
Cl      -2.27860803     -10.00941217      -2.08187724
C       -1.37097719      -7.43371072      -2.37874891
Cl      -0.04797496      -7.76981545      -1.31881175
C       -1.46094626      -6.14017356      -2.91172904
S       -1.44779786      -3.86030259      -5.28127423
O       -1.86636399      -2.63815555      -5.92954667
O       -0.21477465      -3.89403133      -4.52104656
C       -1.29950683      -5.06760585      -6.58698293
C       -0.11349621      -5.79150185      -6.74468723
C       -0.01284138      -6.72422278      -7.77909451
C       -1.09282956      -6.92452585      -8.64117454
Br      -0.94940195      -8.18583359     -10.04186785
C       -2.27424818      -6.19815331      -8.48453770
C       -2.37944055      -5.25886590      -7.45724911
H       -1.03051066      -2.46182124       0.58540211
H       -2.49679518      -3.87170870      -0.81283132
H       -2.40169264      -0.85513447      -3.91876489
H       -0.94046782       0.54022142      -2.51006447
H       -4.30750797      -6.53375942      -4.74162910
H       -4.14628244      -8.80105422      -3.80517803
H       -0.71211408      -5.40410988      -2.62927954
H        0.73659554      -5.63204155      -6.08403801
H        0.91140911      -7.28246268      -7.91132251
H       -3.11047065      -6.34887365      -9.16365654
H       -3.29386407      -4.67782131      -7.34918943
C       -0.88202850       0.88202850       0.88202850
C       -1.29195171       0.41924653       2.13345797
C       -2.08371618       1.23024291       2.95064877
C       -2.47227907       2.49588404       2.49734399
C       -2.04238769       2.96589677       1.25056495
C       -1.25296401       2.15038327       0.43739878
S       -3.38749682       3.58176101       3.57674143
O       -3.04402446       3.18894941       4.93180355
O       -3.11901064       4.94359084       3.15795087
N       -5.00664604       3.22909312       3.29777447
C       -5.61988883       2.28791121       4.19393791
C       -6.15809787       2.79790448       5.38365175
C       -6.73417643       1.94533370       6.32754561
C       -6.76705599       0.56961291       6.09732004
Cl      -7.49892824      -0.42945820       7.30042740
C       -6.20992755       0.05087876       4.92263050
Cl      -6.20298202      -1.64217277       4.57579293
C       -5.62711815       0.90751192       3.97821879
S       -5.57394688       3.29631088       1.71911692
O       -5.00510229       4.41959624       1.00936768
O       -5.52009881       1.96881833       1.14093540
C       -7.29534128       3.70257145       1.95618288
C       -8.29166015       2.81042417       1.54760097
C       -9.63337470       3.15095192       1.73183205
C       -9.96528756       4.37290797       2.32033442
Br     -11.78330866       4.83000865       2.56378608
C       -8.96946808       5.26367339       2.72379771
C       -7.62626662       4.93316251       2.53612643
H       -0.98437961      -0.56320988       2.48576006
H       -2.36803234       0.87477516       3.93852770
H       -2.30475252       3.96539980       0.90543968
H       -0.92275556       2.51858529      -0.53102999
H       -6.12545622       3.86707014       5.59037014
H       -7.14672800       2.36175598       7.24403071
H       -5.18612332       0.47697135       3.08240883
H       -8.04064865       1.86157588       1.07725949
H      -10.41170955       2.46411849       1.40654803
H       -9.23089071       6.21931075       3.17279938
H       -6.85092473       5.63799698       2.83195309
C        0.88202850      -0.88202850       0.88202850
C        0.95049111      -2.25486365       0.63930144
C        1.77006108      -3.06216825       1.43237852
C        2.50357379      -2.48621721       2.47571609
C        2.44923647      -1.10591062       2.70370232
C        1.62705066      -0.30439296       1.90930244
S        3.63718925      -3.48796375       3.42084626
O        4.03588708      -4.57914864       2.54974170
O        4.66233814      -2.60922364       3.94899057
N        2.73240821      -4.10637551       4.69472991
C        2.17662866      -5.41818268       4.50692662
C        2.99174383      -6.50944306       4.83846722
C        2.54310561      -7.81767307       4.64627706
C        1.27702893      -8.04928898       4.10767103
Cl       0.77916413      -9.68962707       3.90110624
C        0.46715961      -6.96446099       3.75181621
Cl      -1.10615621      -7.17454347       3.06821491
C        0.92095585      -5.65148607       3.94040694
S        1.89185019      -3.02827956       5.66924492
O        2.67265321      -1.83866563       5.92274738
O        0.53138347      -2.91466388       5.18380518
C        1.82916013      -3.89967346       7.22526203
C        0.59871763      -4.28281241       7.76815524
C        0.56956186      -4.95445390       8.99214292
C        1.76390686      -5.23632011       9.65830298
Br       1.71794343      -6.14250802      11.31665194
C        2.99068480      -4.84954302       9.11671136
C        3.02707002      -4.17136225       7.89712329
H        0.38306410      -2.69955667      -0.17569099
H        1.84401718      -4.12484031       1.21247770
H        3.04766229      -0.64129949       3.48663022
H        1.58635267       0.76697071       2.09092890
H        3.99062443      -6.34940562       5.24286644
H        3.19132336      -8.65036749       4.91082384
H        0.27892564      -4.82715386       3.63942399
H       -0.33685428      -4.05586512       7.26047318
H       -0.38602264      -5.24566168       9.42273703
H        3.91899522      -5.06143397       9.64257165
H        3.98322726      -3.85155761       7.48608994
