185
Properties=species:S:1:pos:R:3 pbc="F F F"
C        0.00000000       0.00000000       0.00000000
C        0.88194835       0.88194835      -0.88194835
C        0.43717227       1.25832266      -2.15137379
C        1.24358889       2.05978378      -2.96440623
C        2.49631907       2.46810542      -2.49666663
C        2.92822379       2.11561469      -1.20990006
C        2.12114654       1.30955082      -0.40629978
S        3.52670225       3.52814849      -3.51007780
O        2.60804102       4.33589901      -4.28728263
O        4.45676475       4.16012017      -2.59480277
N        4.33903362       2.49420617      -4.54099607
C        4.95141184       1.40941977      -3.85946922
S        6.52450228       1.38172870      -3.17557099
C        6.35270529      -0.29896669      -2.85168900
C        7.29501947      -1.20309637      -2.33486004
C        6.92690056      -2.55086876      -2.19725522
C        7.93072199      -3.54473021      -1.68608824
C        5.62593433      -2.95406209      -2.50795388
C        4.68981789      -2.03958090      -3.00445608
C        5.06276760      -0.69668815      -3.20199532
N        4.26480894       0.29627027      -3.74337797
S        5.35836252       3.20075142      -5.66366724
O        6.02116236       4.36150969      -5.10882122
O        6.15095100       2.17009788      -6.31308348
C        4.24456979       3.77093260      -6.93300022
C        3.97783090       5.13582097      -7.07382711
C        3.19371250       5.57475170      -8.14278425
C        2.69841871       4.65262060      -9.06638163
C        2.97435843       3.29142112      -8.93198243
C        3.75392688       2.84618216      -7.86369285
H       -0.53671597       0.93551985      -2.51167112
H        0.88673248       2.35915235      -3.94710889
H        3.88736009       2.45697174      -0.82524711
H        2.46369096       1.02608702       0.58612913
H        8.29697582      -0.86852918      -2.07899348
H        7.64017243      -4.56875760      -1.94360615
H        8.01790136      -3.46736155      -0.59847721
H        8.91139562      -3.36373288      -2.13939040
H        5.32821759      -3.99375173      -2.38304319
H        3.68653569      -2.36394535      -3.26362345
H        4.37750392       5.86226509      -6.36878237
H        2.98610594       6.63636269      -8.25355897
H        2.60392385       2.57577583      -9.66200413
H        3.99550201       1.78806234      -7.78144383
C        1.90918957       5.11158678     -10.17996477
C        1.24821017       5.49597095     -11.11259065
Br       0.17946237       6.11748765     -12.62056782
C       -0.88194835      -0.88194835      -0.88194835
C       -2.27163894      -0.75690022      -0.81832955
C       -3.08275235      -1.56636239      -1.61866416
C       -2.48836633      -2.50271192      -2.47001287
C       -1.09243032      -2.60538220      -2.55592603
C       -0.28888267      -1.79909888      -1.74901559
S       -3.51167162      -3.52150337      -3.53175356
O       -4.67596986      -2.71534232      -3.83991048
O       -2.63878528      -3.97674356      -4.59615885
N       -3.98564810      -4.80962279      -2.57896497
C       -2.89732724      -5.42088580      -1.90208779
S       -1.90266369      -6.68887097      -2.49026729
C       -1.14687972      -6.80890788      -0.94964000
C       -0.19109418      -7.73492327      -0.50076568
C        0.25008779      -7.65285750       0.82948268
C        1.24064501      -8.65772150       1.34499646
C       -0.21056540      -6.62445758       1.65519685
C       -1.14910870      -5.69593337       1.19034900
C       -1.64349999      -5.80115854      -0.12341624
N       -2.61598022      -4.99673847      -0.69173849
S       -5.00930059      -5.92900737      -3.28447321
O       -4.68618593      -6.12360625      -4.68170107
O       -5.13398210      -7.08613446      -2.41401580
C       -6.60492727      -5.13876968      -3.20480565
C       -7.19568182      -4.62777120      -4.36402596
C       -8.49302182      -4.11450351      -4.30372313
C       -9.19159120      -4.13058338      -3.09524637
C       -8.60584264      -4.65119827      -1.94072107
C       -7.30828738      -5.16183850      -1.99367602
H       -2.72905232      -0.02919072      -0.15223196
H       -4.16370059      -1.45611493      -1.57317821
H       -0.62110661      -3.30809633      -3.24037600
H        0.79325102      -1.88964194      -1.80725794
H        0.17204319      -8.51673548      -1.16274782
H        1.23683529      -8.69148160       2.43962533
H        2.24848251      -8.40248976       1.00499023
H        0.98480738      -9.66200922       0.99014870
H        0.14414414      -6.54287008       2.68121688
H       -1.51860302      -4.91158187       1.84397111
H       -6.66420950      -4.63053848      -5.31380340
H       -8.95369385      -3.71728490      -5.20504885
H       -9.15718289      -4.68053096      -1.00398996
H       -6.86758411      -5.59822479      -1.09919929
C      -10.53743409      -3.62118718      -3.04211986
C      -11.66457751      -3.19456786      -2.99762641
Br     -13.48707309      -2.50476050      -2.92568426
C       -0.88194835       0.88194835       0.88194835
C       -0.53326832       2.21740514       1.09619526
C       -1.33370771       3.02633040       1.90774079
C       -2.47416412       2.48144310       2.50548391
C       -2.84011315       1.14935580       2.26426960
C       -2.03272123       0.34553930       1.45873660
S       -3.53312254       3.51448943       3.51731658
O       -3.42370580       4.84775773       2.95975912
O       -4.81750500       2.84268148       3.55150121
N       -2.83333359       3.50637082       5.03453145
C       -2.53140585       2.19658866       5.49230630
S       -3.57197350       1.14677324       6.36305521
C       -2.26961620       0.04603914       6.58977226
C       -2.23356970      -1.14305962       7.33627306
C       -1.02665691      -1.85703245       7.40366257
C       -0.95172037      -3.10945613       8.22981580
C        0.08571578      -1.41674381       6.68228572
C        0.03178534      -0.23994176       5.92642018
C       -1.15483588       0.51670292       5.89653596
N       -1.32997652       1.72674008       5.24774057
S       -3.57538732       4.43851540       6.20887845
O       -5.01474337       4.41727145       6.05947844
O       -2.98897111       4.14036371       7.50479754
C       -3.01897890       6.09084889       5.83867481
C       -3.89739295       7.01855506       5.27153097
C       -3.47919580       8.33895097       5.09310169
C       -2.19887440       8.72312524       5.49542130
C       -1.32623698       7.79949386       6.07203114
C       -1.73685005       6.47768064       6.24927121
H        0.35647193       2.63552383       0.63142311
H       -1.06330503       4.06843879       2.06124989
H       -3.74418091       0.72686311       2.69853493
H       -2.31096209      -0.69107509       1.28376186
H       -3.11433900      -1.48219854       7.87529966
H        0.08632992      -3.36557515       8.46692605
H       -1.40507981      -3.94545054       7.68938775
H       -1.47539959      -2.97017266       9.18182621
H        1.01815387      -1.97779631       6.71345923
H        0.90634509       0.10767582       5.38488306
H       -4.90393094       6.73051093       4.97410952
H       -4.16195884       9.06153339       4.65253537
H       -0.33588599       8.10354681       6.40227101
H       -1.06597452       5.76845117       6.73058251
C       -1.77938675      10.09077219       5.33058218
C       -1.42806585      11.23617651       5.19252942
Br      -0.86000966      13.08819842       4.96930977
C        0.88194835      -0.88194835       0.88194835
C        0.42857015      -1.27506993       2.14322864
C        1.23487382      -2.07659646       2.95630861
C        2.49603877      -2.46811152       2.49694084
C        2.93694981      -2.09882614       1.21796259
C        2.12984871      -1.29279630       0.41435212
S        3.52687804      -3.52798518       3.51006533
O        2.60867843      -4.35221662       4.27032760
O        4.47195135      -4.14187252       2.59786382
N        4.31896277      -2.49636454       4.55890855
C        4.92725936      -1.39903984       3.89400162
S        6.50657541      -1.34934820       3.22587835
C        6.32144621       0.33269599       2.91667739
C        7.25981963       1.25097161       2.41793511
C        6.87984441       2.59638793       2.28983055
C        7.87878343       3.60492903       1.79822563
C        5.57202480       2.98384775       2.59164907
C        4.64014770       2.05548137       3.07002674
C        5.02432281       0.71440289       3.25815485
N        4.23092434      -0.29153086       3.78200197
S        5.33421707      -3.20395398       5.68461012
O        6.01374012      -4.35271303       5.12504011
O        6.11030129      -2.17206911       6.35176196
C        4.21378925      -3.79736589       6.93734746
C        3.95910394      -5.16609901       7.06227603
C        3.16897838      -5.62310178       8.11916830
C        2.65570336      -4.71493843       9.04677916
C        2.91956235      -3.34986750       8.92833213
C        3.70507000      -2.88660789       7.87212400
H       -0.55189570      -0.96530061       2.49707010
H        0.87143801      -2.38905077       3.93250495
H        3.90308399      -2.42705227       0.83944268
H        2.47922456      -0.99628890      -0.57186460
H        8.26745133       0.92868682       2.16867560
H        7.57570725       4.62350692       2.06282065
H        7.97728548       3.53909051       0.71082205
H        8.85673395       3.42903178       2.25935097
H        5.26534560       4.02177042       2.47393388
H        3.63125834       2.36751911       3.32247456
H        4.37272223      -5.88166867       6.35416048
H        2.97073506      -6.68771671       8.21757583
H        2.53504292      -2.64505660       9.66160428
H        3.93703564      -1.82543361       7.80253894
C        1.86023043      -5.19246243      10.14804827
C        1.19402185      -5.59238878      11.07036115
Br       0.11681892      -6.23903586      12.56166306
