185
Properties=species:S:1:pos:R:3 pbc="F F F"
C        0.00000000       0.00000000       0.00000000
C        0.56021232      -1.76928159      -7.43418493
C        0.59898365      -1.32668954      -5.98089424
C        1.77211332      -0.42751341      -5.67549216
C        3.01670268      -0.87396793      -5.25211702
C        3.47280452      -2.28034592      -5.02386922
S        4.10194028       0.41427275      -4.97124301
C        2.91705568       1.59209984      -5.30822358
C        1.74119542       1.01512754      -5.74920007
C        0.59298838       1.78466564      -6.13706325
N       -0.34400746       2.41494693      -6.40066795
N        3.06929036       3.01659563      -5.11341706
S        3.49949928       3.49466754      -3.55423208
O        4.88177713       3.16196706      -3.28464816
O        3.00582257       4.83626395      -3.31883085
C        2.48398012       2.47063005      -2.49578503
C        3.08007461       1.56546156      -1.61230233
C        2.27079487       0.76649296      -0.80323319
C        0.88161075       0.88161075      -0.88161075
C        0.28896578       1.79787569      -1.75213072
C        1.09155740       2.60664991      -2.55664479
S        3.92091462       3.72548374      -6.39195692
O        5.28927905       3.25053536      -6.40667872
O        3.10666454       3.58437991      -7.58677782
C        3.96657329       5.46650103      -6.02283469
C        2.87675491       6.27590873      -6.36108330
C        2.90244641       7.63227393      -6.02810732
C        4.01414192       8.16678258      -5.37336614
Br       4.02726923       9.99466814      -4.88987112
C        5.11500166       7.36554579      -5.06830980
C        5.10025908       6.01153739      -5.40610523
H       -0.31643372      -2.40043049      -7.61238247
H        1.45247960      -2.34729408      -7.69614818
H        0.50417711      -0.91018534      -8.11055513
H        0.63247984      -2.21184877      -5.33438391
H       -0.33749063      -0.81328131      -5.73249586
H        2.80431895      -2.78402240      -4.31756506
H        4.48508800      -2.32963525      -4.60918406
H        3.46598045      -2.83896084      -5.96503670
H        4.16264600       1.47440584      -1.54525708
H        2.73051449       0.06233788      -0.11345266
H       -0.79320055       1.89443436      -1.80350899
H        0.62737903       3.33403748      -3.22033748
H        2.00478763       5.86336979      -6.86436442
H        2.04988066       8.26172366      -6.27166607
H        5.98010007       7.78148524      -4.55750065
H        5.95735940       5.38907822      -5.15402997
C       -2.08701320      -6.85411813       2.71601568
C       -1.71178517      -5.55811533       2.01671216
C       -1.92784678      -5.61632544       0.52408014
C       -0.97171032      -6.02905668      -0.39408477
C        0.42311255      -6.50401777      -0.13542260
S       -1.54264887      -5.94357671      -2.00123046
C       -3.03071736      -5.26504090      -1.52162085
C       -3.14424263      -5.21615015      -0.14513025
C       -4.31510309      -4.72294622       0.52333203
N       -5.24615241      -4.27683757       1.05138256
N       -4.04249548      -4.74367403      -2.41313353
S       -3.52278260      -3.54538621      -3.48023009
O       -2.69292281      -4.11624428      -4.51922525
O       -4.64619843      -2.69561432      -3.81910463
C       -2.47901803      -2.49767024      -2.47370692
C       -1.12196240      -2.35623422      -2.77964188
C       -0.32115147      -1.54394759      -1.97542197
C       -0.88161075      -0.88161075      -0.88161075
C       -2.24016186      -1.01082643      -0.58798391
C       -3.04872412      -1.81307212      -1.39305587
S       -4.99051676      -5.98559045      -3.06224806
O       -4.19085951      -6.82399358      -3.93164003
O       -5.72083268      -6.59359518      -1.96339441
C       -6.20525765      -5.17230698      -4.07834438
C       -7.36580597      -4.65558950      -3.49235148
C       -8.29264537      -3.98024669      -4.28993560
C       -8.05820618      -3.83693306      -5.65915139
Br      -9.29659374      -2.88793348      -6.72728127
C       -6.91737999      -4.38354480      -6.24793246
C       -5.99147340      -5.06751240      -5.45891589
H       -1.93377521      -6.75747632       3.79573326
H       -1.47335974      -7.68821534       2.36024137
H       -3.13732177      -7.11016288       2.54293775
H       -0.66212177      -5.32312226       2.23022905
H       -2.29339906      -4.73296033       2.44463546
H        0.97670534      -5.75406320       0.43949625
H        0.98116669      -6.68594001      -1.05986349
H        0.40637492      -7.43623361       0.43780238
H       -0.68114705      -2.86795865      -3.63320322
H        0.73454685      -1.42990920      -2.21094267
H       -2.67752960      -0.48489874       0.25768553
H       -4.11167626      -1.89657278      -1.17350495
H       -7.55002647      -4.75760058      -2.42489481
H       -9.18703714      -3.56009608      -3.83613718
H       -6.73429328      -4.27096529      -7.31382739
H       -5.09712194      -5.48085398      -5.92249168
C       -7.14424207       1.44421058      -2.36333699
C       -5.74387799       1.30020683      -1.79089648
C       -5.42466046       2.35250237      -0.75707075
C       -4.84985648       3.58436267      -1.03936739
C       -4.44460492       4.13975118      -2.36802828
S       -4.60105260       4.51716396       0.36923949
C       -5.15677959       3.27058262       1.39001690
C       -5.64228448       2.20009348       0.66314507
C       -6.20502995       1.03137779       1.27830954
N       -6.61204277       0.07223931       1.78732534
N       -5.09010831       3.27493088       2.83426386
S       -3.55327172       3.50531134       3.48981583
O       -3.12976350       4.87858334       3.32004550
O       -3.49597875       2.87289986       4.79203876
C       -2.49436808       2.48633434       2.46969277
C       -1.47644034       3.07124594       1.71015222
C       -0.66838288       2.26106481       0.91107333
C       -0.88161075       0.88161075       0.88161075
C       -1.88747298       0.29785159       1.65364763
C       -2.69257772       1.10007929       2.46219510
S       -6.35083162       4.18128336       3.50624030
O       -6.19636957       5.58143201       3.16869156
O       -7.59400149       3.50431856       3.17950222
C       -6.15203395       4.03456098       5.26931409
C       -6.66430236       2.91527383       5.93417075
C       -6.46530644       2.78671247       7.31080876
C       -5.76949675       3.77639121       8.00840267
Br      -5.46878856       3.57841535       9.86460458
C       -5.28994200       4.90915376       7.34976149
C       -5.49296717       5.04882990       5.97610462
H       -7.33721558       0.64929684      -3.09099416
H       -7.26727370       2.40600388      -2.87194387
H       -7.90406986       1.37833043      -1.57785339
H       -5.01309897       1.34901367      -2.60709766
H       -5.63189392       0.30170930      -1.35187929
H       -3.75483614       3.45280992      -2.86978445
H       -3.93822766       5.10670299      -2.28029384
H       -5.32312629       4.27545503      -3.00652501
H       -1.30422878       4.14576870       1.73231144
H        0.12560639       2.71187513       0.32003629
H       -2.04466121      -0.77830181       1.63838340
H       -3.46339289       0.64020784       3.07815326
H       -7.20054627       2.13740204       5.39457354
H       -6.84481908       1.90935922       7.82909210
H       -4.74718534       5.67917353       7.89272709
H       -5.10529518       5.92921523       5.46595718
C       -2.91932537      -2.52546219       6.61897884
C       -2.18106092      -2.05897437       5.37527490
C       -0.68404653      -2.21048940       5.49364920
C        0.16889741      -1.23460444       5.99134991
C       -0.17585817       0.12344490       6.51563089
S        1.80325019      -1.72838913       5.95581672
C        1.42477010      -3.20299674       5.18961226
C        0.05868333      -3.37561309       5.07122662
C       -0.53141649      -4.55082041       4.49531335
N       -0.99474793      -5.48264237       3.98371298
N        2.38516986      -4.14830095       4.66583224
S        3.47930766      -3.52574697       3.54334426
O        4.45166748      -2.67787530       4.19884956
O        3.90816537      -4.59180186       2.66095015
C        2.47288309      -2.48013001       2.49738209
C        2.72090183      -1.10560295       2.43133371
C        1.91720282      -0.30440677       1.61891144
C        0.88161075      -0.88161075       0.88161075
C        0.64649140      -2.25650639       0.93597441
C        1.45185347      -3.06492884       1.73806979
S        3.02175610      -5.12347810       5.89312108
O        3.81430774      -4.32587781       6.80630758
O        1.93222400      -5.92994766       6.41565061
C        4.12905852      -6.25205909       5.07479140
C        3.62182399      -7.41218199       4.47974096
C        4.49140467      -8.26971418       3.80170881
C        5.85316916      -7.96775529       3.73336618
Br       7.01957964      -9.11124288       2.78098596
C        6.36277209      -6.82858936       4.35749580
C        5.50139856      -5.97200872       5.04449441
H       -3.99962854      -2.41635248       6.47879433
H       -2.63040076      -1.93626585       7.49546861
H       -2.70884619      -3.57781488       6.83557821
H       -2.43280621      -1.01006249       5.17775870
H       -2.54388481      -2.61984750       4.50576125
H       -0.74194167       0.68528638       5.76508965
H        0.71233911       0.71318343       6.76548113
H       -0.78882583       0.03738840       7.41827054
H        3.52909929      -0.65148745       3.00172218
H        2.10785335       0.76496028       1.56341196
H       -0.15335651      -2.70616253       0.35193678
H        1.27884622      -4.13938826       1.76351951
H        2.56067939      -7.64858312       4.52325934
H        4.09928902      -9.16284826       3.32113312
H        7.42288448      -6.59289421       4.30330726
H        5.90357773      -5.07815802       5.51873185
