185
Properties=species:S:1:pos:R:3 pbc="F F F"
C        0.00000000       0.00000000       0.00000000
Cl       4.85145658      15.19519060       0.12645396
C        4.64654190      13.56644949      -0.38658880
C        3.42484289      12.92283472      -0.19128701
C        3.26459868      11.59246010      -0.59932445
C        4.31880053      10.89272009      -1.20426801
C        5.53852148      11.56626215      -1.39930666
C        5.70188058      12.89579344      -0.99248099
C        4.13966530       9.48742485      -1.58112914
C        5.15504110       8.69043675      -2.07657382
S        4.60609310       7.09106921      -2.30029835
C        3.04532002       7.56537649      -1.76875611
N        2.91226980       8.83536499      -1.43884773
N        2.02376946       6.59010366      -1.74121980
N        2.42440632       5.29594372      -1.84936323
C        1.33266105       4.54257912      -1.71585035
C        1.47767284       3.08236504      -1.70869436
C        2.50049768       2.48398073      -2.46677274
C        2.70814914       1.10318379      -2.43522528
C        1.89421928       0.29870597      -1.64263889
C        0.88271979       0.88271979      -0.88271979
C        0.67399158       2.26415932      -0.90514725
C        0.18718288       5.37100873      -1.62051742
Cl      -1.43262903       4.82921693      -1.61241031
C        0.63769785       6.68936504      -1.59104636
C       -0.15292140       7.93069371      -1.49546089
C       -1.21109540       8.01887015      -0.57311870
C       -2.03000224       9.15085929      -0.51157934
C       -1.78578724      10.23036849      -1.35485978
C       -0.73187309      10.16231945      -2.26193726
C        0.06540123       9.01711933      -2.35122930
H        2.59999933      13.44379113       0.28309684
H        2.30710762      11.10354683      -0.43021888
H        6.38990041      11.08243354      -1.86702682
H        6.65542418      13.39395244      -1.14804681
H        6.18438554       8.93292771      -2.29402409
H        3.15832461       3.09960353      -3.07890786
H        3.51142860       0.66218683      -3.02018246
H        2.06283745      -0.77456658      -1.61581801
H       -0.09674559       2.69173222      -0.27091543
H       -1.42422553       7.19727266       0.10823137
H       -2.85719954       9.18547189       0.19300899
H       -2.41855700      11.11195450      -1.29880324
H        0.85840710       8.98677540      -3.09350315
C       -0.45929941      11.28669076      -3.11931276
C       -0.23101896      12.22835174      -3.83736474
Br       0.13809123      13.75093789      -4.99839405
Cl       2.34435747     -10.39223544     -11.87231525
C        1.53018616      -9.41559977     -10.71416659
C        2.01552402      -8.14390076     -10.41058788
C        1.35724381      -7.35543645      -9.45819059
C        0.21157009      -7.82666836      -8.80069037
C       -0.26449046      -9.10877412      -9.13082572
C        0.39124448      -9.89928285     -10.08211664
C       -0.43254436      -7.00012044      -7.77555449
C       -1.49382240      -7.42846619      -6.99976308
S       -1.90876694      -6.24319292      -5.84550081
C       -0.68515469      -5.21879606      -6.47550186
N        0.00649038      -5.70542986      -7.48754302
N       -0.51831639      -3.94185939      -5.89491714
N       -1.13092743      -3.74014343      -4.69864242
C       -0.78213914      -2.52059167      -4.28835970
C       -1.23689305      -2.06066119      -2.97117800
C       -2.47561961      -2.50313897      -2.47249256
C       -2.91243631      -2.13660259      -1.19751930
C       -2.11452698      -1.32059773      -0.40043942
C       -0.88271979      -0.88271979      -0.88271979
C       -0.43733304      -1.25108971      -2.15487540
C       -0.00893810      -1.88107188      -5.28869904
Cl       0.50154343      -0.25136900      -5.25917265
C        0.19867946      -2.81364510      -6.30314361
C        0.94292611      -2.65027312      -7.56588618
C        2.19859306      -2.01662199      -7.56286453
C        2.89438417      -1.77511463      -8.75170592
C        2.35764708      -2.19079245      -9.96629567
C        1.12256706      -2.83304548      -9.98190520
C        0.40763201      -3.04269932      -8.79868255
H        2.90554146      -7.76478670     -10.90144837
H        1.75589578      -6.36943166      -9.22733745
H       -1.14915045      -9.52784472      -8.66236561
H        0.00854828     -10.88930138     -10.31667034
H       -2.03155595      -8.36454290      -7.01523849
H       -3.10520666      -3.15655457      -3.07507477
H       -3.86821659      -2.49863728      -0.82694401
H       -2.45495833      -1.04262397       0.59349341
H        0.54463383      -0.92562901      -2.48490687
H        2.65259014      -1.68736614      -6.63003976
H        3.85217013      -1.26141805      -8.72601543
H        2.90460905      -2.00930390     -10.88750589
H       -0.56808621      -3.51788812      -8.85271132
C        0.57446884      -3.28766500     -11.23350795
C        0.11543657      -3.66840884     -12.28172525
Br      -0.62677977      -4.28403944     -13.97660396
Cl       1.44778498       7.21591245      14.15206575
C        0.75361214       6.68098301      12.67220932
C        1.05274622       5.41034388      12.18136697
C        0.49535233       4.98190572      10.96982985
C       -0.36337133       5.81469773      10.23771957
C       -0.65777428       7.08828270      10.75803332
C       -0.10218531       7.51945951      11.96851018
C       -0.89764841       5.36000881       8.95056206
C       -1.65660684       6.15433238       8.11111245
S       -2.00837351       5.32818812       6.66089904
C       -1.17069725       3.95380761       7.25494775
N       -0.65056660       4.07507836       8.46083755
N       -1.11388974       2.80177133       6.43943185
N       -1.46400044       2.96880781       5.13690501
C       -1.26149382       1.79880253       4.53079416
C       -1.48064690       1.70522781       3.08285753
C       -2.46984053       2.50250657       2.47890405
C       -2.66427379       2.48636618       1.09591824
C       -1.86988484       1.67100300       0.29467630
C       -0.88271979       0.88271979       0.88271979
C       -0.67911275       0.89917803       2.26500736
C       -0.86803713       0.82691690       5.48375500
Cl      -0.67325129      -0.84219390       5.17794083
C       -0.72913900       1.48446298       6.70450726
C       -0.33553591       0.92611734       8.01157995
C        0.74904620       0.03455633       8.09538333
C        1.09878562      -0.57384238       9.30506439
C        0.38521686      -0.27763847      10.46229638
C       -0.68096845       0.61513580      10.39627938
C       -1.05615647       1.19640963       9.18118375
H        1.72198763       4.75459088      12.72809037
H        0.74761952       3.99079451      10.59769835
H       -1.31964481       7.77689296      10.24282301
H       -0.33930198       8.51008921      12.34803224
H       -2.00193695       7.16906654       8.24033385
H       -3.08888399       3.15984753       3.08810449
H       -3.42695946       3.11863929       0.64819914
H       -2.01993533       1.66582452      -0.78167097
H        0.12458667       0.30336686       2.68712187
H        1.33517654      -0.21202646       7.21201876
H        1.92581464      -1.27862686       9.33970486
H        0.66472764      -0.74545203      11.40238041
H       -1.91388049       1.86324832       9.16155684
C       -1.40666938       0.94434830      11.59568644
C       -2.01444390       1.22006376      12.60018985
Br      -2.99716391       1.66587236      14.22438691
Cl      15.23570066       0.03973074       4.72422330
C       13.60111213      -0.46137221       4.53709585
C       12.94895708      -0.27082692       3.31918062
C       11.61395707      -0.66905348       3.17337269
C       10.91805898      -1.25938121       4.23834844
C       11.60012491      -1.44992968       5.45403570
C       12.93429763      -1.05288196       5.60297541
C        9.50824396      -1.62596442       4.07401091
C        8.71568711      -2.10631028       5.10005427
S        7.10999320      -2.32120948       4.56625798
C        7.57563596      -1.80659069       2.99722596
N        8.84715774      -1.48841249       2.85091228
N        6.59212782      -1.77937210       1.98359300
N        5.30050744      -1.87338277       2.39582306
C        4.53918365      -1.74262938       1.30927748
C        3.08034081      -1.72207892       1.46631251
C        2.48426117      -2.46663714       2.50035283
C        1.10555506      -2.42184133       2.71916181
C        0.30089983      -1.62933241       1.90533190
C        0.88271979      -0.88271979       0.88271979
C        2.26213498      -0.91841051       0.66275266
C        5.35877978      -1.66370761       0.15622164
Cl       4.80356579      -1.66449142      -1.45905899
C        6.68105115      -1.64151696       0.59554113
C        7.91648324      -1.56285190      -0.20610195
C        8.00345547      -0.65007332      -1.27263534
C        9.12903741      -0.60477321      -2.10137422
C       10.20352757      -1.45498763      -1.85907416
C       10.13677218      -2.35270592      -0.79709448
C        8.99756969      -2.42582562       0.01035454
H       13.46691802       0.19234260       2.48611820
H       11.11848223      -0.50380641       2.21858470
H       11.11956599      -1.90652626       6.31326852
H       13.43909673      -1.20470014       6.55362657
H        8.96495635      -2.31724581       6.12913518
H        3.10026529      -3.07842299       3.15814772
H        0.66645224      -2.99642286       3.53092279
H       -0.77066826      -1.59215421       2.08260294
H        2.68849451      -0.29417615      -0.11676860
H        7.18577772       0.03632559      -1.48463637
H        9.16257499       0.09262676      -2.93468487
H       11.08023268      -1.41153735      -2.49956929
H        8.96770285      -3.16122731       0.80975548
C       11.25624143      -3.21715420      -0.52669153
C       12.19379694      -3.94112964      -0.30022906
Br      13.70974489      -5.11173668       0.06594160
