198
Properties=species:S:1:pos:R:3 pbc="F F F"
C        1.79149209       1.79149209      -1.79149209
C        1.39458216       3.09386191      -2.08604090
C        2.20003677       3.90083747      -2.89501397
C        3.40947723       3.41271914      -3.41657056
C        3.79770007       2.10009959      -3.09215911
C        2.98957360       1.29013242      -2.29126800
C        4.28771261       4.31754508      -4.26461315
H        3.64949329       5.03996931      -4.79052371
N        4.99355042       3.53796398      -5.27555431
C        6.17378223       3.95452980      -5.79524234
C        6.95879878       3.49344257      -6.82568596
Cl       6.63506438       2.15853648      -7.82247488
C        8.07994578       4.36814225      -6.86434864
N        7.98411388       5.32373181      -5.90720611
N        6.83419381       5.03600075      -5.27630783
C        6.26961612       5.88710812      -4.24206144
H        5.71664804       6.67135398      -4.77496769
C        5.29284270       5.06893073      -3.37907112
C        7.32322181       6.52930315      -3.36748728
F        8.11739934       7.38979970      -4.03948342
F        6.72000837       7.25903841      -2.39073595
F        8.10678648       5.62142006      -2.74664586
C        9.23353975       4.32630193      -7.77853191
O        9.36296445       3.46745741      -8.64241476
N       10.17647792       5.30176181      -7.49060094
C       11.39922804       5.45247938      -8.17891100
C       12.55071780       5.61151010      -7.39393009
F       12.44502368       5.60660573      -6.05550263
C       13.81343128       5.73795985      -7.96033386
C       13.92735028       5.73579083      -9.34098961
F       15.13543568       5.86867105      -9.90280891
C       12.80455628       5.63245143     -10.15396760
C       11.53508918       5.50215754      -9.57709570
Br      10.05890614       5.63506973     -10.77241085
H        0.46278264       3.48975615      -1.69016427
H        1.87404903       4.91648385      -3.11056006
H        4.73854550       1.69608808      -3.46414774
H        3.30680549       0.27575100      -2.06328149
H        4.42683589       2.85670819      -5.78369630
H        5.85759608       4.35346771      -2.76407699
H        4.76022953       5.72915292      -2.68290228
H       10.12657587       5.62958192      -6.52707651
H       14.69285369       5.83495727      -7.33459895
H       12.93056584       5.68527869     -11.23178676
C       -1.79149209      -1.79149209      -1.79149209
C       -2.67892579      -1.20478783      -2.69077135
C       -3.48806553      -2.01123235      -3.49659033
C       -3.41697681      -3.41142472      -3.41036540
C       -2.50171372      -3.98140084      -2.50684422
C       -1.69917806      -3.17667359      -1.69512237
C       -4.27944550      -4.27028563      -4.32013970
H       -5.20345448      -3.72427241      -4.55225942
N       -4.65793935      -5.50583403      -3.64329533
C       -4.95509355      -6.63144623      -4.33701459
C       -5.45630391      -7.85662361      -3.96499978
Cl      -5.88286655      -8.33859582      -2.39461337
C       -5.53228117      -8.61243007      -5.16772543
N       -5.10381687      -7.88352344      -6.22771149
N       -4.75262620      -6.70457655      -5.68929963
C       -4.34359335      -5.56360299      -6.49158934
H       -5.27505034      -5.07797018      -6.80994918
C       -3.52975537      -4.58881444      -5.62227475
C       -3.54651541      -5.95887638      -7.71462044
F       -4.26037628      -6.68598185      -8.60032433
F       -3.14981647      -4.84042503      -8.37954124
F       -2.42542182      -6.64491726      -7.40451333
C       -5.99836249      -9.99835052      -5.34166059
O       -6.37475154     -10.69277864      -4.40530644
N       -5.87795719     -10.44003323      -6.65085025
C       -6.20456080     -11.74323470      -7.08282292
C       -5.26570594     -12.39254486      -7.89790719
F       -4.12234442     -11.76611344      -8.21867418
C       -5.46503206     -13.68859243      -8.35810050
C       -6.64023417     -14.34104821      -8.02284834
F       -6.85311612     -15.58572690      -8.46807263
C       -7.61797164     -13.71274541      -7.26025825
C       -7.40980744     -12.40765996      -6.79687501
Br      -8.91337023     -11.55842092      -5.99459556
H       -2.74683026      -0.12296377      -2.77290902
H       -4.17226429      -1.53363843      -4.19519022
H       -2.40719060      -5.06380815      -2.42778258
H       -1.00700960      -3.64128767      -0.99754071
H       -4.98533411      -5.40048246      -2.68142382
H       -2.55079307      -5.03304163      -5.39130607
H       -3.33123542      -3.66340735      -6.17764196
H       -5.18020798      -9.92102948      -7.18199684
H       -4.71528876     -14.18071044      -8.96641070
H       -8.54703329     -14.23954996      -7.06104804
C       -1.79149209       1.79149209       1.79149209
C       -2.81280221       1.21698045       2.54470232
C       -3.62185577       2.02374814       3.35028430
C       -3.41682198       3.41206983       3.40987512
C       -2.36901865       3.96763012       2.65331001
C       -1.56577070       3.16374952       1.84145379
C       -4.28429944       4.26670468       4.31886672
H       -5.27213369       3.79619804       4.41165458
N       -4.48114546       5.58954712       3.73637614
C       -4.74298704       6.67200862       4.50855871
C       -5.09256228       7.96928306       4.21608196
Cl      -5.31640800       8.63052446       2.66914328
C       -5.21890610       8.61754374       5.47598683
N       -4.96486759       7.75734746       6.49283675
N       -4.66965465       6.60269958       5.87414815
C       -4.44645161       5.35926478       6.59306929
H       -5.44477047       4.94156951       6.77662973
C       -3.64160952       4.39091795       5.70831708
C       -3.74205896       5.56196127       7.91599200
F       -4.47174265       6.27347811       8.80146169
F       -3.51544976       4.35443345       8.49989952
F       -2.53858535       6.15874219       7.77752487
C       -5.57325549      10.02149012       5.74362798
O       -5.79103241      10.83123228       4.85057193
N       -5.54380245      10.32942349       7.09561473
C       -5.79292481      11.61435562       7.62333799
C       -4.88476872      12.09148968       8.57989959
F       -3.83984398      11.32860633       8.93868173
C       -5.01119666      13.35418937       9.14633896
C       -6.08389860      14.14731970       8.77291242
F       -6.22690256      15.36180229       9.31821080
C       -7.03389421      13.69012844       7.86695265
C       -6.89920544      12.41788422       7.29725276
Br      -8.38625595      11.79738164       6.28274912
H       -2.98561582       0.14421619       2.51287105
H       -4.41206632       1.55530743       3.93371919
H       -2.17007788       5.03805981       2.69064364
H       -0.76893142       3.61844636       1.25846020
H       -4.71983920       5.60414900       2.74325219
H       -2.60859309       4.75500922       5.61153846
H       -3.58317127       3.40418301       6.18493045
H       -4.95164209       9.69818547       7.63340673
H       -4.28412796      13.71288413       9.86539782
H       -7.88745110      14.32211932       7.63806087
C        1.79149209      -1.79149209       1.79149209
C        1.62663986      -3.17458820       1.77325691
C        2.43181106      -3.98223183       2.58184532
C        3.40894195      -3.41405964       3.41576534
C        3.56837263      -2.01641900       3.40516715
C        2.75864242      -1.20800504       2.60432655
C        4.29775518      -4.31172133       4.26039432
H        3.74195029      -5.22422541       4.51381061
N        4.64668662      -3.64846908       5.51191301
C        5.78187777      -3.95687823       6.18479837
C        6.26927101      -3.59121622       7.41744007
Cl       5.51409263      -2.56416713       8.53781598
C        7.52312385      -4.25238178       7.53693104
N        7.78922705      -4.99302168       6.43280306
N        6.72856291      -4.78080941       5.63713007
C        6.53443583      -5.48429038       4.38005946
H        6.07232238      -6.44338185       4.64726548
C        5.57097918      -4.68376701       3.48609836
C        7.83009051      -5.74513118       3.64479054
F        8.65859010      -6.57812683       4.30996554
F        7.56404448      -6.34998078       2.45575747
F        8.50396291      -4.60974002       3.36114948
C        8.47162608      -4.20451091       8.66223661
O        8.27357817      -3.53226965       9.66698880
N        9.62972645      -4.92587307       8.41324114
C       10.72271271      -5.00548065       9.30242506
C       11.99825982      -4.80243385       8.75546432
F       12.12207162      -4.54058371       7.44447672
C       13.14542780      -4.82683128       9.53946591
C       13.02093798      -5.08914756      10.89404518
F       14.11754823      -5.12805392      11.66131350
C       11.77975212      -5.34676736      11.46445583
C       10.62705751      -5.31765746      10.66962743
Br       9.02902983      -5.94141794      11.49593894
H        0.87688722      -3.63266580       1.13315003
H        2.28978436      -5.06071117       2.55059741
H        4.32922262      -1.54407648       4.02548222
H        2.89459646      -0.12967171       2.62156981
H        3.87438099      -3.19221450       6.00064489
H        6.07248985      -3.77211093       3.13053999
H        5.31117650      -5.26731061       2.59379761
H        9.81218570      -5.05232008       7.41872852
H       14.11901203      -4.64279514       9.10060273
H       11.72951033      -5.59781833      12.52030263
C       -0.00445707       0.01189536      -1.78238275
H       -0.66409135       0.67374010      -2.43557963
H        0.65740317      -0.63156657      -2.45157240
C       -0.90989263      -0.90692880      -0.91072765
C        0.90977584       0.90977584      -0.90977584
C       -0.00465871       1.77757030       0.00794375
H       -0.66225468       2.44313916      -0.64384735
H        0.64322798       2.43503045       0.67728295
C       -1.78241447       0.00034974      -0.00472694
H       -2.45427497      -0.65498947       0.64260836
H       -2.43311707       0.67328779      -0.65473579
C       -0.91132561       0.90220522       0.91563759
C       -0.01476271      -0.02253852       1.78660255
H       -0.67934791      -0.69751639       2.42135241
H        0.63392994       0.61504881       2.47327442
C        0.01484550      -1.77751727      -0.01636693
H        0.67870853      -2.42144646      -0.68295456
H       -0.62264859      -2.45592969       0.64226336
C        1.78714474       0.01002794       0.00389507
H        2.44202412       0.67113390       0.66197326
H        2.45385902      -0.65136977      -0.64189061
C        0.91606151      -0.90478549       0.90901405
