173
Properties=species:S:1:pos:R:3 pbc="F F F"
C        0.00000000       0.00000000       0.00000000
C        0.88125221       0.88125221      -0.88125221
C        1.54547958       0.32792124      -1.97099388
C        2.35391569       1.13728963      -2.77891529
C        2.51899565       2.51012040      -2.51152945
C        1.82319423       3.03807475      -1.40564028
C        1.01381753       2.23504502      -0.59478082
C        3.37398597       3.37988076      -3.34829568
C        4.48143073       2.92148217      -4.03344792
C        5.22394724       3.83506861      -4.78076495
C        6.47068632       3.30572731      -5.38077097
O        6.38151374       2.37551549      -6.16958282
N        7.61373022       3.90177065      -4.88460735
C        8.95021236       3.54172493      -5.14730788
C        9.32640775       2.52715006      -6.02895634
C       10.67709181       2.20150879      -6.20100011
C       11.65656647       2.89392210      -5.49290346
I       13.65817324       2.39294191      -5.72925032
C       11.29615736       3.91871716      -4.62153915
C        9.94620659       4.24137470      -4.45282809
C        4.83934618       5.18785744      -4.88652893
C        5.49851035       6.14474469      -5.69776914
C        5.06780155       7.46590335      -5.72403009
Br       5.95732451       8.72678384      -6.81326935
C        3.98793817       7.85930388      -4.94813844
C        3.31770757       6.91719743      -4.15095839
C        2.14399325       7.36191318      -3.31694121
C        3.71752589       5.57428943      -4.12884306
N        3.02799930       4.69110005      -3.38058751
H        1.43879160      -0.72803208      -2.20772561
H        2.83931613       0.67466870      -3.63610905
H        1.91248287       4.09714334      -1.16585294
H        0.49495648       2.67963964       0.24992652
H        4.80018861       1.88585289      -3.97432110
H        7.48541070       4.63339533      -4.19493607
H        8.59224752       1.96216766      -6.59522238
H       10.94196872       1.40050657      -6.88667436
H       12.04894000       4.46934838      -4.06245098
H        9.68862958       5.03992803      -3.76184994
H        6.33715199       5.85181796      -6.32805173
H        3.65481574       8.89454229      -4.96317208
H        2.00381097       8.44759430      -3.36614282
H        2.30454604       7.10308363      -2.26421019
H        1.22334610       6.88740512      -3.67270409
C       -0.88125221      -0.88125221      -0.88125221
C       -1.15119397      -2.19186474      -0.50133600
C       -1.95979158      -2.99969568      -1.31063335
C       -2.50826622      -2.51753986      -2.51483942
C       -2.22183411      -1.18233025      -2.86274490
C       -1.41505940      -0.37001321      -2.05857076
C       -3.35833018      -3.35706573      -3.38676649
C       -3.23803784      -4.72997156      -3.46835143
C       -4.08396056      -5.41936251      -4.33645772
C       -3.81343587      -6.86930911      -4.47443961
O       -3.88604630      -7.56749339      -3.47307236
N       -3.41879446      -7.23452582      -5.74678795
C       -2.96700788      -8.49897844      -6.17325885
C       -2.90724952      -9.62483941      -5.35042523
C       -2.40351198     -10.83569279      -5.84039594
C       -1.96105448     -10.92413387      -7.15820368
I       -1.18998175     -12.71367991      -7.87670381
C       -2.02926088      -9.81266780      -7.99448500
C       -2.53349461      -8.60527995      -7.50163482
C       -5.07781214      -4.75294511      -5.08297531
C       -6.02377082      -5.40352881      -5.91372455
C       -6.95514060      -4.66678079      -6.63581359
Br      -8.20984361      -5.55145354      -7.73608055
C       -6.96103430      -3.28266991      -6.55167628
C       -6.03777088      -2.62723375      -5.72085876
C       -6.06108918      -1.12266302      -5.63909544
C       -5.10688840      -3.35055018      -4.96321980
N       -4.26068427      -2.69006223      -4.14894035
H       -0.74577619      -2.59593888       0.42322994
H       -2.16827881      -4.01201063      -0.96980444
H       -2.63248698      -0.76252114      -3.78047101
H       -1.21627236       0.65399314      -2.36239038
H       -2.48547538      -5.27097680      -2.90391042
H       -3.37508351      -6.49745852      -6.44120007
H       -3.23845206      -9.59431070      -4.31687481
H       -2.35911839     -11.69461414      -5.17541713
H       -1.68893015      -9.86591971      -9.02588950
H       -2.57013001      -7.74948993      -8.17078761
H       -6.04714243      -6.49050924      -5.97937000
H       -7.68528957      -2.70538187      -7.12185867
H       -6.77710377      -0.69224039      -6.34820393
H       -5.07503215      -0.71223971      -5.88456800
H       -6.34959012      -0.80108550      -4.63277969
C       -0.88125221       0.88125221       0.88125221
C       -1.97557973       1.53926549       0.32954949
C       -2.78349763       2.34770707       1.13891592
C       -2.51156302       2.51899021       2.51009226
C       -1.40106442       1.82936816       3.03647668
C       -0.59018105       1.02002108       2.23344124
C       -3.34827381       3.37410518       3.37978342
C       -4.03933753       4.47721478       2.91980852
C       -4.78600931       5.22036080       3.83341068
C       -5.39272290       6.46281528       3.30164642
O       -6.18469413       6.36714755       2.37477038
N       -4.89864566       7.60997054       3.89149203
C       -5.16775982       8.94407982       3.52740553
C       -6.05464624       9.31310391       2.51476400
C       -6.23302896      10.66188705       2.18468469
C       -5.52603903      11.64663953       2.87071348
I       -5.77184939      13.64542979       2.36308629
C       -4.64945784      11.29340139       3.89355444
C       -4.47442181       9.94532766       4.22065990
C       -4.88521387       4.84048759       5.18803108
C       -5.69532907       5.50020531       6.14548980
C       -5.71497648       5.07440512       7.46835339
Br      -6.80281235       5.96458070       8.72998465
C       -4.93352420       3.99897265       7.86288363
C       -4.13737132       3.32819160       6.92030046
C       -3.29724552       2.15932301       7.36627910
C       -4.12183456       3.72300378       5.57582004
N       -3.37431023       3.03296553       4.69241109
H       -2.21588663       1.42768870      -0.72509020
H       -3.64426146       2.82811640       0.67771602
H       -1.15762434       1.92356917       4.09428563
H        0.25815523       0.50603628       2.67678855
H       -3.98532406       4.79227052       1.88276801
H       -4.20573918       7.48702360       4.62097933
H       -6.62025568       8.57467969       1.95470220
H       -6.92271707      10.92114188       1.38529070
H       -4.09115080      12.05036636       4.43922220
H       -3.77946674       9.69338337       5.01755744
H       -6.32988225       6.33534898       5.85179043
H       -4.94339222       3.66971738       8.89942052
H       -3.34182119       2.02306723       8.45265967
H       -2.24611349       2.32286395       7.10286242
H       -3.65130760       1.23555094       6.89659677
C        0.88125221      -0.88125221       0.88125221
C        0.36281641      -1.43376559       2.04781270
C        1.17220975      -2.24212183       2.85578903
C        2.51326560      -2.50892655       2.51845334
C        3.00133479      -1.94081416       1.32476031
C        2.19792199      -1.13266382       0.51305757
C        3.38617580      -3.35383294       3.36215367
C        3.23786585      -3.46855484       4.72994013
C        4.12888198      -4.28332827       5.42757054
C        3.99714855      -4.25715902       6.90287702
O        2.93127352      -4.60230086       7.39303767
N        5.10956358      -3.74708215       7.54346250
C        5.25405869      -3.46831899       8.91686749
C        4.27403522      -3.73390096       9.87457797
C        4.47910826      -3.38554750      11.21494494
C        5.66882306      -2.77295306      11.60161592
I        5.96169680      -2.23310282      13.58556585
C        6.66126345      -2.51612470      10.65902553
C        6.45295747      -2.86600921       9.32144269
C        5.13164474      -5.01930643       4.76278138
C        6.00993691      -5.93008619       5.40100108
C        6.98840572      -6.59647029       4.67285898
Br       8.14850944      -7.80862167       5.54024659
C        7.11558790      -6.36888271       3.31090988
C        6.24199143      -5.47932310       2.66454885
C        6.39267790      -5.24691896       1.18325078
C        5.23105337      -4.81636746       3.37323756
N        4.38799367      -3.99836903       2.71332416
H       -0.66912300      -1.25019909       2.33740904
H        0.72568662      -2.67598651       3.74842074
H        4.02991662      -2.12770357       1.01785895
H        2.61193224      -0.71171607      -0.39897870
H        2.47390203      -2.91759844       5.26886212
H        5.88788820      -3.46925668       6.95659723
H        3.33230217      -4.20587643       9.61145896
H        3.69544390      -3.59491873      11.93878702
H        7.59587323      -2.03963205      10.94523408
H        7.23883209      -2.64902208       8.60255338
H        5.91461485      -6.13611297       6.46629385
H        7.88555668      -6.88499884       2.74197460
H        7.27422787      -5.76024550       0.78307472
H        6.51785176      -4.17811695       0.97587115
H        5.51357362      -5.62155280       0.64832889
