193
Properties=species:S:1:pos:R:3 pbc="F F F"
C        0.00000000       0.00000000       0.00000000
C        0.88195815       0.88195815      -0.88195815
C        0.29670201       1.74297038      -1.80164392
C        1.10977747       2.53430253      -2.61882425
C        2.51176063       2.48961182      -2.51735366
C        3.07577916       1.63810038      -1.55858187
C        2.26684595       0.82289099      -0.75738981
C        3.32577642       3.39559642      -3.33801866
C        3.20346002       4.77772391      -3.45733601
Cl       2.13671388       5.79417451      -2.59484919
C        4.15903222       5.19957917      -4.41203433
N        4.87991184       4.15806955      -4.82652821
N        4.38926102       3.06003382      -4.18299982
C        5.02956625       1.79100127      -4.46415346
N        4.61038377       0.65794990      -3.88023218
C        5.33087302      -0.45837822      -4.13150672
C        6.43114196      -0.48799411      -4.96746871
C        6.78215407       0.70185439      -5.56325850
N        6.09067016       1.83460142      -5.30798254
C        7.96945253       0.76929354      -6.51095000
F        7.64772930       1.27128115      -7.73585257
F        8.98476042       1.54314262      -6.03518290
F        8.52754013      -0.45314275      -6.75544369
C        4.88014236      -1.65951221      -3.44679529
C        3.69196241      -2.04432490      -2.85691018
C        3.89454313      -3.35129491      -2.34707190
C        5.19227691      -3.68383739      -2.64740962
O        5.79714225      -2.66832746      -3.31919681
C        4.45138047       6.52380249      -4.96689355
C        3.43315410       7.42354766      -5.30719224
C        3.74222255       8.65564680      -5.89483187
C        5.07108588       8.99052227      -6.15314445
C        6.09561785       8.10766921      -5.82709629
C        5.78491776       6.87960346      -5.23928846
H       -0.78297739       1.81473445      -1.89122450
H        0.62950317       3.20717471      -3.33068526
H        4.15564250       1.59075406      -1.42252388
H        2.73157854       0.15115685      -0.03861729
H        6.98347008      -1.40186120      -5.15020888
H        2.78875732      -1.45292649      -2.81362940
H        3.18149022      -3.97420879      -1.82433195
H        5.80718244      -4.55467966      -2.46785821
H        2.38794494       7.17165533      -5.15146618
H        2.93900216       9.33811836      -6.16184047
H        7.13282677       8.35219196      -6.03754562
H        6.59244786       6.18482897      -5.00884337
C        5.38469047      10.25144385      -6.77389316
C        5.64733431      11.30746566      -7.29377020
Br       6.07200720      13.01496362      -8.13436740
C       -0.88195815      -0.88195815      -0.88195815
C       -2.26242464      -0.84811415      -0.73077752
C       -3.06323053      -1.67124619      -1.52842755
C       -2.50017495      -2.52297362      -2.49557754
C       -1.10802799      -2.51309565      -2.65133777
C       -0.29979234      -1.71156521      -1.83576919
C       -3.38161353      -3.31093327      -3.36684469
C       -4.44812001      -2.85357821      -4.13682172
Cl      -4.94326299      -1.23345257      -4.34902202
C       -5.03680615      -3.98624508      -4.74759450
N       -4.34995267      -5.08360000      -4.43095692
N       -3.34357072      -4.69024170      -3.59848224
C       -2.44116621      -5.71973065      -3.12382411
N       -1.42549722      -5.42515215      -2.29791647
C       -0.58188716      -6.43513764      -1.98697673
C       -0.73575490      -7.73017849      -2.44468317
C       -1.82077749      -7.96991558      -3.25657389
N       -2.66341260      -6.97047148      -3.59937005
C       -2.08452636      -9.36560113      -3.79956859
F       -3.32818020      -9.83117294      -3.49550988
F       -1.97000866      -9.43788812      -5.15518916
F       -1.21777335     -10.30125436      -3.31081337
C        0.53517615      -6.07364984      -1.12895175
C        0.78511325      -5.02864331      -0.26101765
C        2.07926056      -5.24483561       0.27525492
C        2.54537607      -6.40077868      -0.30044653
O        1.61539114      -6.91485735      -1.14854539
C       -6.20712454      -4.11521985      -5.61973211
C       -7.38370805      -3.39086347      -5.38932247
C       -8.50642461      -3.58381991      -6.20245671
C       -8.46086014      -4.50883786      -7.24505461
C       -7.30298539      -5.24142826      -7.48596969
C       -6.18347167      -5.04595853      -6.67437949
H       -2.72906735      -0.18760713      -0.00630708
H       -4.14523792      -1.62527794      -1.39684728
H       -0.62803203      -3.13369186      -3.40719655
H        0.78072838      -1.74236184      -1.95971922
H       -0.04277990      -8.51698843      -2.17204943
H        0.10647557      -4.21804462      -0.03789119
H        2.60739337      -4.63239489       0.99338814
H        3.46390527      -6.96506348      -0.21920278
H       -7.45811987      -2.69203336      -4.56091323
H       -9.41490914      -3.02051726      -6.00353459
H       -7.26156192      -5.97509897      -8.28590346
H       -5.28874927      -5.64123952      -6.85613141
C       -9.62325660      -4.71785588      -8.06891499
C      -10.59676364      -4.89290847      -8.75889806
Br     -12.17084219      -5.17595371      -9.87454233
C       -0.88195815       0.88195815       0.88195815
C       -1.77391267       0.29612010       1.77128354
C       -2.59150029       1.10870180       2.56270217
C       -2.51776803       2.51123112       2.48972697
C       -1.58615606       3.07675603       1.60954932
C       -0.78507920       2.26755704       0.79449051
C       -3.33670167       3.32688401       3.39580582
C       -3.42764931       3.22884977       4.78202087
Cl      -2.52592602       2.19817716       5.80163440
C       -4.39238151       4.17421253       5.20405169
N       -4.84011765       4.86708512       4.15730682
N       -4.20806282       4.36767098       3.05656086
C       -4.52524029       4.97814565       1.78133504
N       -3.95479867       4.54838263       0.64538454
C       -4.24077336       5.24249993      -0.47927176
C       -5.09807174       6.32608939      -0.51354458
C       -5.67800371       6.68857170       0.68069155
N       -5.38827612       6.02383911       1.82113890
C       -6.64683424       7.85891843       0.74394340
F       -7.85569425       7.52390163       1.27526714
F       -6.17614368       8.89763136       1.48931090
F       -6.92491372       8.38878705      -0.48385970
C       -3.57025338       4.78179044      -1.68461837
C       -2.96504986       3.59775520      -2.05825736
C       -2.48384694       3.78480640      -3.37833320
C       -2.81519226       5.07005498      -3.72939810
O       -3.47923546       5.68153006      -2.71275393
C       -4.92774749       4.48139617       6.53293284
C       -5.23149995       3.47437814       7.45801589
C       -5.80168678       3.79589465       8.69511979
C       -6.07907149       5.12583915       9.00984197
C       -5.78936768       6.13921625       8.10179942
C       -5.21890562       5.81614915       6.86875491
H       -1.84142549      -0.78347935       1.86503541
H       -3.28125327       0.62811004       3.25799983
H       -1.47172706       4.15788094       1.53931244
H       -0.08809802       2.73276444       0.10049023
H       -5.30850869       6.85727364      -1.43396457
H       -2.89336158       2.70702023      -1.45092158
H       -1.95934385       3.06990275      -3.99763322
H       -2.66385829       5.67142930      -4.61492660
H       -5.06053951       2.42764697       7.22287997
H       -6.04037963       3.00102004       9.39756132
H       -6.01501693       7.17678011       8.33076731
H       -5.01707697       6.61440882       6.15463441
C       -6.68190053       5.45181995      10.27630699
C       -7.18676985       5.72482887      11.33697146
Br      -8.00310084       6.16626120      13.05197618
C        0.88195815      -0.88195815       0.88195815
C        0.63577092      -2.24695177       0.95859362
C        1.43505532      -3.04601994       1.78182900
C        2.49725327      -2.49830078       2.52317205
C        2.74561675      -1.12497117       2.40187349
C        1.93057047      -0.31575066       1.60080562
C        3.36179251      -3.38531950       3.31227948
C        4.02273704      -4.53331342       2.88246948
Cl       4.08295595      -5.15089851       1.29188312
C        4.67284424      -5.08683675       4.01096473
N        4.48375361      -4.30624351       5.07451248
N        3.69487188      -3.27104085       4.66638194
C        3.35818579      -2.26908690       5.65744829
N        2.58362878      -1.21844318       5.34649388
C        2.40446711      -0.28818322       6.31135120
C        2.94342191      -0.38695704       7.58023761
C        3.69536739      -1.50930285       7.84259672
N        3.90705883      -2.44019010       6.88600520
C        4.31906184      -1.71679884       9.21383539
F        3.96620757      -2.90081621       9.78783924
F        5.68098741      -1.69625358       9.18584494
F        3.95913475      -0.75564043      10.11506589
C        1.59995204       0.86116228       5.92863568
C        0.67741213       1.10217557       4.92931115
C        0.24691964       2.44344503       5.08684552
C        0.93510341       2.94364488       6.16439061
O        1.75344882       1.99148887       6.68605164
C        5.47094410      -6.30591246       4.16521994
C        5.10962926      -7.50894981       3.54531492
C        5.85687264      -8.67205574       3.76377284
C        6.96448713      -8.63979659       4.61046889
C        7.33558831      -7.45558111       5.23921393
C        6.58948266      -6.29594405       5.01838297
H       -0.16456156      -2.70340578       0.38413734
H        1.22766381      -4.11626487       1.82343446
H        3.57519159      -0.66020291       2.93352594
H        2.12916877       0.75254282       1.54472673
H        2.77601501       0.37554913       8.33135188
H        0.35074436       0.38827517       4.18699104
H       -0.47639093       2.97965662       4.48766093
H        0.95725283       3.90167800       6.66478616
H        4.22959954      -7.57015811       2.91130880
H        5.55668715      -9.59971290       3.28256094
H        8.18757954      -7.42277933       5.91220547
H        6.87397112      -5.37857505       5.53357403
C        7.72088671      -9.84207925       4.84706151
C        8.35437137     -10.84899098       5.04520783
Br       9.37866247     -12.47708208       5.36559366
