181
Properties=species:S:1:pos:R:3 pbc="F F F"
C        0.00000000       0.00000000       0.00000000
Cl       3.85775062       0.60433354      -3.55541809
C        2.62436441       1.20749892      -2.49697852
C        2.39397397       2.59243095      -2.47691598
C        1.40844280       3.16176423      -1.65666745
C        0.65780492       2.27583286      -0.86807545
C        0.89007853       0.89007853      -0.89007853
C        1.90679372       0.32947712      -1.67256222
N        2.04705979      -1.06726881      -1.80125168
N        1.17203339       4.57624769      -1.63340026
C        0.22989243       5.21085506      -0.84511008
O       -0.57160845       4.79390469      -0.02934063
C        0.31251552       6.64072005      -1.12605583
C       -0.41732381       7.69528892      -0.59939213
C       -0.07469433       8.94537188      -1.09142743
C        0.92326844       9.12742885      -2.03793182
C        1.65380730       8.07289507      -2.56404888
C        1.31046059       6.82265174      -2.07258239
C        1.85822321       5.50776399      -2.39063161
O        2.76210192       5.40161601      -3.19855416
C        1.00958755      10.55779098      -2.31439447
O        1.82648501      10.97703646      -3.11357780
N        0.06015112      11.19143772      -1.53433644
C       -0.18006296      12.60535755      -1.51523872
C       -1.17098211      13.17359469      -0.70085827
C       -1.40426500      14.55818139      -0.68345855
Cl      -2.66204430      15.15724669       0.34829952
C       -0.63489569      15.44438368      -1.45040991
N       -0.96724120      16.81180065      -1.53323289
C        0.32145758      14.87477049      -2.29967593
C        0.55662300      13.48940097      -2.31894108
C       -0.61888743      10.26098529      -0.76950361
O       -1.50909290      10.36913421       0.05317198
H        3.01061976       3.19887858      -3.13326824
H       -0.13843809       2.63000941      -0.22023307
H        2.96388364      -1.35032063      -2.14095375
H        1.74309702      -1.58480369      -0.98028653
H       -1.19654880       7.55337754       0.14160737
H        2.43458224       8.21511533      -3.30320052
H       -1.80228931      12.56477561      -0.06077420
H       -0.19671794      17.40077985      -1.83915580
H       -1.43908878      17.16264099      -0.70236825
H        1.32968966      13.13201844      -2.99254267
C        1.11688022      15.70101533      -3.17043553
C        1.78304668      16.39299539      -3.89969670
Br       2.86018150      17.51186860      -5.07885033
Cl      -3.15760116      -4.17761933      -0.68228177
C       -2.32367009      -2.76419630      -1.24097547
C       -2.50029541      -2.38243140      -2.58059409
C       -1.86988448      -1.24659846      -3.11039153
C       -1.06509838      -0.50612631      -2.23048853
C       -0.89007853      -0.89007853      -0.89007853
C       -1.48089897      -2.05104174      -0.37689234
N       -1.41984229      -2.35864052       0.99744015
N       -2.04766134      -0.85525671      -4.47876329
C       -1.45206987       0.24100132      -5.07478901
O       -0.68400980       1.08648857      -4.65411564
C       -1.89674596       0.28180089      -6.46434633
C       -1.58775988       1.18246389      -7.47206125
C       -2.18986037       0.92101247      -8.69325708
C       -3.03626342      -0.16017836      -8.89218732
C       -3.34463791      -1.06145988      -7.88465347
C       -2.74315734      -0.79938898      -6.66314839
C       -2.83422677      -1.52328735      -5.39910469
O       -3.51867548      -2.52621057      -5.31738603
C       -3.47617368      -0.12241547     -10.28318385
O       -4.22646882      -0.98078622     -10.70984423
N       -2.88938347       0.97991507     -10.87645688
C       -3.07162056       1.37443212     -12.24334487
C       -2.44745315       2.51473353     -12.77075122
C       -2.62697960       2.89898417     -14.10937951
Cl      -1.82153477       4.33271793     -14.65808603
C       -3.40839951       2.14274181     -14.99424019
N       -3.69552565       2.61042418     -16.29269086
C       -4.07059791       1.03206943     -14.45737552
C       -3.89260781       0.64564572     -13.11800295
C       -2.09466736       1.64194883      -9.95888293
O       -1.39441445       2.63342939     -10.04588427
H       -3.15484145      -3.00510287      -3.18282226
H       -0.55735467       0.39809649      -2.55254621
H       -1.61923241      -3.33590382       1.20061947
H       -0.57960087      -2.01424967       1.45527067
H       -0.92497780       2.02694261      -7.31718619
H       -4.00546553      -1.90720501      -8.04022756
H       -1.81026834       3.14959433     -12.16258651
H       -3.98540870       1.87737113     -16.93518014
H       -2.97124660       3.21696075     -16.67163462
H       -4.42790504      -0.23925423     -12.78709150
C       -4.94412945       0.23072280     -15.27492443
C       -5.67571212      -0.44040501     -15.95962164
Br      -6.85861942      -1.52556191     -17.06671912
Cl      -3.32634274       4.05151233       0.63964718
C       -2.39719589       2.70905102       1.22259495
C       -2.49058580       2.38672430       2.58601080
C       -1.77971846       1.31006416       3.13709185
C       -0.98171986       0.56568563       2.25430774
C       -0.89007853       0.89007853       0.89007853
C       -1.56191494       1.99452276       0.35239534
N       -1.58176437       2.23562682      -1.03634853
N       -1.87241058       0.97956523       4.52970553
C       -1.19510585      -0.05596202       5.14671374
O       -0.40664829      -0.88390802       4.72889659
C       -1.57056756      -0.04839488       6.55711872
C       -1.16936941      -0.88186057       7.58984840
C       -1.72499275      -0.58866504       8.82577728
C       -2.61393395       0.45961611       9.01507906
C       -3.01454425       1.29373699       7.98247003
C       -2.45952311       0.99987851       6.74629309
C       -2.64668840       1.65456229       5.45536812
O       -3.38350415       2.61844597       5.36032197
C       -2.98472442       0.47051136      10.42653721
O       -3.75581822       1.31245456      10.84882649
N       -2.31602755      -0.57163024      11.04152797
C       -2.41308121      -0.90558325      12.43303536
C       -1.70833303      -1.98711776      12.98225557
C       -1.80454007      -2.31211181      14.34494668
Cl      -0.90327198      -3.67668986      14.92032075
C       -2.57978023      -1.55064116      15.23075883
N       -2.78107368      -1.96599524      16.56271390
C       -3.32143843      -0.50094721      14.67541278
C       -3.22690806      -0.17389554      13.31195253
C       -1.53378642      -1.24011862      10.11793366
O       -0.78152451      -2.19157100      10.21691582
H       -3.14602860       3.00685773       3.18988026
H       -0.41468396      -0.29613236       2.59325279
H       -1.83917454       3.19092256      -1.27558034
H       -0.74810210       1.90916105      -1.51868329
H       -0.47334247      -1.70052936       7.44240827
H       -3.70865140       2.11379708       8.13044961
H       -1.06988353      -2.62053414      12.37391112
H       -3.07632190      -1.21638073      17.18327655
H       -2.01018528      -2.51769122      16.93342640
H       -3.82088765       0.66689225      12.96647088
C       -4.19402704       0.29777433      15.49652971
C       -4.92482000       0.96670363      16.18421514
Br      -6.10645041       2.04830572      17.29614431
Cl       3.01472974      -0.72853617       4.27423635
C        2.25630804      -1.26278383       2.80974999
C        2.43153138      -2.60285634       2.42893319
C        1.84442439      -3.11863419       1.26381588
C        1.06418611      -2.23078387       0.50674323
C        0.89007853      -0.89007853       0.89007853
C        1.51692616      -0.36522859       2.02667829
N        1.23070614       0.93620763       2.48654414
N        2.02295131      -4.48676312       0.87196691
C        1.48779993      -5.06322146      -0.26516383
O        0.79669334      -4.61763453      -1.16269099
C        1.90379736      -6.46206345      -0.28656941
C        1.62830070      -7.45893623      -1.20987968
C        2.19207742      -8.69253932      -0.92251175
C        2.97338638      -8.91254366       0.20269906
C        3.24966505      -7.91540078       1.12568543
C        2.68505003      -6.68196054       0.83868414
C        2.76233808      -5.42237854       1.57190219
O        3.40495085      -5.35420420       2.60311704
C        3.39394542     -10.30980512       0.17802246
O        4.10366781     -10.74960086       1.06383060
N        2.84992841     -10.88923040      -0.95323352
C        3.02384089     -12.25881346      -1.34212104
C        2.43012388     -12.77636154      -2.50301459
C        2.60197137     -14.11747589      -2.88207231
Cl       1.81384003     -14.66057719      -4.32751436
C        3.40446819     -14.99551295      -2.14008324
N        3.45726577     -16.36982712      -2.44930056
C        3.95795148     -14.49384462      -0.95589210
C        3.78724632     -13.15211357      -0.57439484
C        2.11916554      -9.95095168      -1.65851576
O        1.49307954     -10.01394161      -2.70015182
H        3.03679461      -3.22103973       3.08493224
H        0.55711746      -2.55262300      -0.39793608
H        1.93672112       1.30340594       3.12120157
H        0.97828376       1.58434363       1.74463973
H        1.01872989      -7.28683410      -2.09034261
H        3.86116990      -8.08694304       2.00478516
H        1.80697994     -12.16365112      -3.14737055
H        4.27700270     -16.84077705      -2.07456203
H        3.29221084     -16.56772295      -3.43401332
H        4.26619188     -12.83944588       0.34861302
C        4.74578019     -15.33913969      -0.09658880
C        5.40558674     -16.04707430       0.62307773
Br       6.47243812     -17.19174470       1.78671762
