189
Properties=species:S:1:pos:R:3 pbc="F F F"
C        0.00000000       0.00000000       0.00000000
C        8.32973537       6.57882886      -3.30126709
O        8.09145002       6.49305617      -1.90101412
C        6.86370301       6.04558598      -1.49035699
C        5.81016631       5.74030306      -2.35332463
C        4.58559503       5.28108290      -1.84764328
C        4.39745457       5.12369448      -0.46360567
O        3.18129719       4.63420786      -0.06805413
C        2.81726075       4.83224723       1.29464290
C        5.44813015       5.42931542       0.40180854
C        6.66828582       5.88989012      -0.10913915
Cl       7.92908438       6.24825241       1.02092566
N        3.53158861       4.99220809      -2.77147008
S        3.51651646       3.50472286      -3.51216268
O        2.86390699       3.57639532      -4.80338752
O        4.84909972       2.93346931      -3.44886533
C        2.48216225       2.51326072      -2.45955620
C        1.11102734       2.42535172      -2.72283719
C        0.30826760       1.60967179      -1.92452708
C        0.88171172       0.88171172      -0.88171172
C        2.25476255       0.94602817      -0.63702751
C        3.06263241       1.75519881      -1.43684971
S        2.39979965       6.17288911      -3.07074650
O        1.21874532       5.62713291      -3.70450432
O        2.25290278       7.00869037      -1.89359237
C        3.22250998       7.18366741      -4.30095028
C        3.60453925       8.49413409      -3.99049216
C        4.25831891       9.26956292      -4.95246573
C        4.53313101       8.73172859      -6.21032786
Br       5.43609482       9.77342500      -7.50254900
C        4.13864688       7.43295657      -6.52634324
C        3.46550997       6.66280602      -5.57659243
H        9.36868802       6.88871351      -3.44634588
H        7.68655607       7.33690008      -3.76038031
H        8.20252302       5.60522958      -3.78661363
H        5.92110450       5.83840342      -3.42840959
H        1.79422363       4.46614459       1.42393334
H        2.83074228       5.89647520       1.55389637
H        3.45873194       4.25366611       1.96688539
H        5.35282338       5.30687003       1.47579637
H        0.66035089       2.98087147      -3.54376587
H       -0.75859515       1.54594410      -2.12660055
H        2.70296323       0.36871752       0.16618296
H        4.13408622       1.79374467      -1.25264988
H        3.39107167       8.92597257      -3.01443603
H        4.54470369      10.29188923      -4.71505845
H        4.33732560       7.01423532      -7.51021654
H        3.12985555       5.66928526      -5.85698681
C       -3.40881098      -6.30306971      -8.49795062
O       -2.31849941      -5.42255945      -8.74446145
C       -2.14406726      -4.36937196      -7.88620676
C       -3.00746075      -4.06299709      -6.83333616
C       -2.74996434      -2.96739246      -5.99696441
C       -1.62033064      -2.15767313      -6.20675094
O       -1.43287043      -1.13460821      -5.31608053
C       -0.55711008      -0.08406681      -5.71368820
C       -0.75604495      -2.46040039      -7.25919170
C       -1.01982824      -3.55474276      -8.09274410
Cl       0.09489402      -3.87376434      -9.37754080
N       -3.67061442      -2.68666324      -4.93798912
S       -3.50699640      -3.51796999      -3.50843561
O       -4.78092564      -3.63399105      -2.82877314
O       -2.74802225      -4.73053913      -3.75287298
C       -2.47998182      -2.46088628      -2.51411107
C       -3.07374805      -1.52556210      -1.65990609
C       -2.26793824      -0.72911256      -0.84541567
C       -0.88171172      -0.88171172      -0.88171172
C       -0.29015972      -1.83545070      -1.71220781
C       -1.09225366      -2.63879626      -2.52363100
S       -4.86765658      -1.56533434      -5.21044433
O       -5.46433206      -1.11466298      -3.97138751
O       -4.39899098      -0.58446167      -6.17173288
C       -6.11277672      -2.53786482      -6.05648614
C       -6.41563088      -2.27570413      -7.39783049
C       -7.37834952      -3.04922249      -8.05277555
C       -8.02416530      -4.08076945      -7.37025271
Br      -9.30969569      -5.13962197      -8.26275116
C       -7.73563178      -4.33215413      -6.03016079
C       -6.79144022      -3.54774879      -5.36571941
H       -3.35919391      -7.11218460      -9.23236889
H       -4.36500318      -5.78655373      -8.63227955
H       -3.33878458      -6.75353238      -7.50204927
H       -3.88355987      -4.67132786      -6.63302978
H       -0.58562783       0.68668038      -4.93748743
H       -0.88998773       0.37002082      -6.65335419
H        0.47729274      -0.43412066      -5.78868475
H        0.13651366      -1.87274244      -7.44766825
H       -4.15580364      -1.41151217      -1.61767242
H       -2.73010477       0.00153387      -0.18537860
H        0.78809197      -1.96338820      -1.73020156
H       -0.63007420      -3.39012481      -3.16028177
H       -5.92198977      -1.47055606      -7.93893445
H       -7.62208136      -2.83783384      -9.09173617
H       -8.24685899      -5.12537039      -5.48954808
H       -6.61223726      -3.73270655      -4.31118381
C       -3.64925499       8.73658336       5.82399295
O       -2.25374012       8.68018999       5.55159019
C       -1.71919548       7.46453555       5.21591495
C       -2.43854125       6.26870234       5.19655040
C       -1.81315102       5.06720812       4.83396207
C       -0.45113399       5.04636187       4.48725885
O        0.06110056       3.83336363       4.11129611
C        1.47826951       3.69364114       4.13949345
C        0.27110198       6.23978228       4.50695673
C       -0.35855872       7.43645593       4.87230043
Cl       0.59654954       8.87966425       4.87329641
N       -2.58971988       3.86523697       4.84030994
S       -3.51386002       3.51524753       3.50429445
O       -4.66412049       2.71284788       3.86672146
O       -3.73974692       4.73712698       2.75456047
C       -2.45582719       2.49013840       2.50901358
C       -2.50899849       1.09941080       2.65080696
C       -1.71234591       0.29400861       1.83611194
C       -0.88171172       0.88171172       0.88171172
C       -0.85023669       2.26806570       0.71951584
C       -1.65005850       3.07723389       1.52738854
S       -2.54353505       2.90383044       6.19606977
O       -3.05124192       1.57647520       5.92266544
O       -1.25546639       3.05188849       6.84783065
C       -3.73926613       3.70085523       7.26700632
C       -3.31786461       4.32339972       8.44790117
C       -4.25656269       4.95450518       9.26927969
C       -5.60327470       4.96759870       8.90431405
Br      -6.86812404       5.83957189      10.00437289
C       -6.02655857       4.33396204       7.73742607
C       -5.09604511       3.68309573       6.92576759
H       -3.91294745       9.78195101       6.00884894
H       -3.89388368       8.16470899       6.72524378
H       -4.23615064       8.39265546       4.96556013
H       -3.49424908       6.24665168       5.44701676
H        1.71637266       2.65282793       3.89997960
H        1.87427534       3.90991435       5.13768210
H        1.95600885       4.32110781       3.38041371
H        1.31996413       6.27313272       4.23072844
H       -3.16539538       0.63472491       3.38486793
H       -1.75036186      -0.78698390       1.95057155
H       -0.21373929       2.72448601      -0.03272752
H       -1.63366939       4.15631686       1.39049453
H       -2.27085959       4.31530827       8.74531242
H       -3.93066399       5.42812628      10.19286110
H       -7.07709496       4.32859590       7.45608660
H       -5.45230465       3.15998899       6.04383398
C        5.73863827      -3.69920660       8.77198644
O        5.44361244      -2.30766781       8.73424005
C        5.11922648      -1.75827290       7.52214660
C        5.13197204      -2.45748140       6.31434056
C        4.77890583      -1.81795470       5.11746068
C        4.40957584      -0.46174409       5.11343478
O        4.04524742       0.06463096       3.90294271
C        4.05175809       1.48423644       3.78734343
C        4.39715475       0.24040021       6.31888250
C        4.75312819      -0.40326819       7.51091871
Cl       4.71390496       0.52713987       8.96964604
N        4.81842812      -2.57383786       3.90300081
S        3.50427404      -3.51404286       3.51508510
O        3.89944934      -4.64434939       2.69989109
O        2.73822493      -3.77305252       4.72015691
C        2.50842704      -2.45552246       2.49102966
C        2.67424678      -2.48275866       1.10221081
C        1.85970260      -1.68625840       0.29650546
C        0.88171172      -0.88171172       0.88171172
C        0.69593561      -0.87643144       2.26545118
C        1.50365035      -1.67627746       3.07475311
S        6.18903733      -2.48879711       2.96560082
O        5.94642055      -2.97843012       1.62553189
O        6.81632879      -1.19274348       3.14611326
C        7.26665045      -3.67985303       3.76062419
C        8.42970380      -3.24944559       4.41001612
C        9.25623908      -4.18488743       5.03922105
C        8.91397096      -5.53752045       5.02369604
Br      10.02062054      -6.79845963       5.89298865
C        7.76513719      -5.96938851       4.36342099
C        6.94878701      -5.04163233       3.71448909
H        5.91049596      -3.97745344       9.81579801
H        6.65330446      -3.91906662       8.21146537
H        4.89611834      -4.29440976       8.40383813
H        5.40061815      -3.50834564       6.27895371
H        3.82561557       1.73591358       2.74673289
H        5.03935435       1.89309401       4.02706077
H        3.27434806       1.93856780       4.40973241
H        4.10268171       1.28380018       6.36501551
H        3.42695998      -3.11887130       0.63915694
H        1.99278023      -1.70404557      -0.78287630
H       -0.07448008      -0.26037551       2.71960234
H        1.34854280      -1.68045237       4.15148560
H        8.70943016      -2.19764496       4.42440516
H       10.16615003      -3.85171928       5.53378206
H        7.50176206      -7.02422383       4.33579157
H        6.08185069      -5.40362074       3.17065619
