129
Properties=species:S:1:pos:R:3 pbc="F F F"
C        0.00000000       0.00000000       0.00000000
C        0.88122244       0.88122244      -0.88122244
C        2.25313535       0.94877081      -0.64832180
C        3.06534187       1.75217659      -1.46016668
C        2.50438645       2.50338865      -2.49496414
C        1.12488746       2.40417619      -2.73108801
C        0.31254151       1.60238163      -1.92516892
N        3.23128639       3.32277525      -3.37936388
C        4.51436428       3.80503769      -3.38159249
S        5.01515976       4.46958937      -4.83767302
N        5.18003930       3.80150576      -2.18327576
C        6.54158008       4.03722570      -1.87853262
C        7.58603614       3.89054143      -2.78980179
C        8.90610446       4.15325105      -2.40975532
C        9.20023566       4.54113515      -1.10268287
C        8.17642564       4.65601270      -0.15273051
C        8.44768499       5.04956612       1.27229722
C        6.85255268       4.39115466      -0.55646438
H        2.70509785       0.36526339       0.15000235
H        4.13615980       1.72124177      -1.28739799
H        0.65972360       2.95990047      -3.54275832
H       -0.75462711       1.54687365      -2.12477517
H        2.74221019       3.57700131      -4.23338686
H        4.55282554       3.84073831      -1.38999045
H        7.41787429       3.54720137      -3.80441772
H        9.69729628       4.04580030      -3.14790183
H        7.52325289       5.10374071       1.85702542
H        8.91680076       6.03776375       1.31513778
H        9.09669996       4.31188903       1.75520123
H        6.05364092       4.48507065       0.17652816
C       10.57878842       4.80357126      -0.77969743
C       11.73332635       5.02336150      -0.50919713
Br      13.60011653       5.37874373      -0.07182101
C       -0.88122244      -0.88122244      -0.88122244
C       -0.95551251      -0.64286622      -2.25184924
C       -1.75891996      -1.45467411      -3.06409109
C       -2.50342812      -2.49496011      -2.50435101
C       -2.39742913      -2.73643814      -1.12628439
C       -1.59560748      -1.93056331      -0.31392128
N       -3.32215369      -3.37974591      -3.23152591
C       -3.80979266      -3.37863027      -4.51257153
S       -4.47034204      -4.83538245      -5.01669766
N       -3.81407632      -2.17753285      -5.17321164
C       -4.05679216      -1.86808585      -6.53246038
C       -3.91068646      -2.77434955      -7.58134335
C       -4.18053242      -2.38988764      -8.89869076
C       -4.57511849      -1.08323754      -9.18569766
C       -4.68966678      -0.13807116      -8.15743090
C       -5.09031976       1.28641256      -8.42104670
C       -4.41755728      -0.54622695      -6.83638749
H       -0.37725778       0.15978927      -2.70289038
H       -1.73321095      -1.27729530      -4.13429332
H       -2.94778983      -3.55237801      -0.66221454
H       -1.53477819      -2.13440050       0.75215697
H       -3.57074363      -4.23687025      -2.74498448
H       -3.85399241      -1.38705235      -4.54250953
H       -3.56239766      -3.78820818      -7.41888756
H       -4.07331957      -3.12425699      -9.69342184
H       -5.14305491       1.86703247      -7.49394574
H       -6.08065162       1.32706177      -8.88583690
H       -4.35740598       1.77512659      -9.07110837
H       -4.51118157       0.18301311      -6.03401494
C       -4.84469793      -0.75558965     -10.56176953
C       -5.07047071      -0.48118455     -11.71422972
Br      -5.43552621      -0.03749470     -13.57766037
C       -0.88122244       0.88122244       0.88122244
C       -1.26556977       2.14532683       0.43933136
C       -2.08001636       2.95377611       1.24389268
C       -2.49666005       2.50667623       2.49940296
C       -2.12089204       1.22129070       2.91796893
C       -1.31095871       0.41171441       2.11741894
N       -3.33076621       3.22856702       3.37409229
C       -3.75609338       4.53102031       3.41388077
S       -5.02211312       4.82713274       4.47317629
N       -3.02985864       5.44263527       2.69232691
C       -3.29985696       6.79251092       2.36497052
C       -4.57583486       7.35282683       2.33771767
C       -4.75576301       8.70106616       2.01228166
C       -3.66066276       9.49986550       1.68352543
C       -2.37004585       8.95435335       1.66076964
C       -1.16292711       9.77033069       1.29169610
C       -2.20922018       7.59507758       1.99587396
H       -0.95370958       2.50484622      -0.53819690
H       -2.41189910       3.90112513       0.83177534
H       -2.44635520       0.83448602       3.88154117
H       -1.02853125      -0.57823219       2.46672266
H       -3.76904398       2.67685696       4.10669742
H       -2.06844580       5.15594691       2.55916159
H       -5.46453493       6.76539462       2.53956384
H       -5.76197620       9.11327171       2.01575049
H       -0.24417609       9.17699078       1.34880130
H       -1.04627108      10.61543453       1.97772113
H       -1.25048508      10.13851339       0.26438929
H       -1.20792178       7.16887359       1.98538803
C       -3.91487416      10.88121717       1.36596578
C       -4.12777620      12.03809919       1.10000958
Br      -4.47202081      13.90867958       0.66998089
C        0.88122244      -0.88122244       0.88122244
C        0.92222015      -2.25772969       0.67027812
C        1.73554734      -3.06821941       1.47391840
C        2.49546001      -2.50575843       2.50152080
C        2.46132870      -1.11499777       2.68382519
C        1.65342302      -0.30370928       1.88295976
N        3.35891148      -3.22503336       3.34948067
C        3.53962846      -4.56029081       3.60107519
S        4.93498190      -4.93462802       4.45281223
N        2.51819920      -5.40210326       3.24451836
C        2.45968669      -6.81455816       3.18309355
C        3.57452297      -7.64072012       3.05113627
C        3.43045652      -9.03117716       3.00747714
C        2.16367926      -9.61163173       3.06874269
C        1.02099223      -8.80543126       3.15874534
C       -0.36518398      -9.38465586       3.20548202
C        1.18750884      -7.40691304       3.20574985
H        0.34050226      -2.70938253      -0.12952590
H        1.79021961      -4.12422385       1.23035611
H        3.05790016      -0.64276569       3.46171654
H        1.63982286       0.77071108       2.04790994
H        4.04187523      -2.66176819       3.84895493
H        1.61942454      -4.93720271       3.22692705
H        4.57706243      -7.23966666       2.95276430
H        4.32052440      -9.64975789       2.92071611
H       -1.12520387      -8.60111235       3.29405969
H       -0.47681858     -10.04408712       4.07215821
H       -0.57696595      -9.94266969       2.28768402
H        0.30311610      -6.77728827       3.28177902
C        2.08653581     -11.04894549       3.02657581
C        2.02192816     -12.25269576       2.99126105
Br       1.91746307     -14.19905815       2.93416006
