122
Properties=species:S:1:pos:R:3 pbc="F F F"
C        1.79155008       1.79155008      -1.79155008
C        2.56577421       1.21027041      -2.79591898
C        3.37055637       2.01506534      -3.60846445
C        3.38996141       3.40435976      -3.41844687
C        2.62482989       3.97463420      -2.39216134
C        1.82099358       3.16919266      -1.58189906
C        4.21936201       4.30717349      -4.26786818
O        4.69251789       5.31479749      -3.75682993
N        4.33194600       3.92180805      -5.58888622
C        5.03993286       4.57211182      -6.62845434
C        5.81005615       5.72136103      -6.43137998
C        6.48040742       6.32120177      -7.50415351
C        6.38738220       5.77203826      -8.78057998
Br       7.29362400       6.59030968     -10.22295545
C        5.63241408       4.62489048      -9.00068957
C        4.96453516       4.03071438      -7.92766253
Cl       4.03586101       2.60070551      -8.23992092
H        2.55543423       0.13340837      -2.94784620
H        3.99253725       1.53968456      -4.36227089
H        2.65027829       5.05041303      -2.22529769
H        1.22709353       3.62540421      -0.79393729
H        3.79420666       3.11718232      -5.89364037
H        5.91135112       6.18091572      -5.45259046
H        7.07039158       7.21756314      -7.32609473
H        5.56112091       4.19481975      -9.99574302
C       -1.79155008      -1.79155008      -1.79155008
C       -2.02340581      -3.11874756      -1.42981022
C       -2.83428237      -3.92766553      -2.23213827
C       -3.41997627      -3.40058143      -3.39221034
C       -3.16217996      -2.07231977      -3.75712569
C       -2.35244874      -1.26556626      -2.95407031
C       -4.30422432      -4.21735643      -4.27282293
O       -4.29063758      -3.99603717      -5.47747056
N       -5.09886197      -5.13240241      -3.61137589
C       -6.03609725      -6.03551726      -4.16888451
C       -6.24996791      -6.16953566      -5.54329359
C       -7.19827700      -7.07686309      -6.03062260
C       -7.93586317      -7.85889296      -5.14524431
Br      -9.21560159      -9.07895573      -5.81233181
C       -7.73636578      -7.74837520      -3.77325315
C       -6.79009387      -6.84105326      -3.29176493
Cl      -6.56715174      -6.73324576      -1.57608993
H       -1.57157381      -3.53345972      -0.53165528
H       -2.97445497      -4.96825394      -1.95178379
H       -3.59692647      -1.66183366      -4.66722889
H       -2.16635810      -0.23486812      -3.24520881
H       -5.07944169      -5.12864263      -2.59694503
H       -5.69536324      -5.58115079      -6.26834327
H       -7.34938115      -7.16003452      -7.10463377
H       -8.30992359      -8.35960038      -3.08215971
C       -1.79155008       1.79155008       1.79155008
C       -1.21004451       2.79457919       2.56733989
C       -2.01483178       3.60712467       3.37212971
C       -3.40433162       3.41846108       3.38997534
C       -3.97486259       2.39349550       2.62326734
C       -3.16942740       1.58323164       1.81942627
C       -4.30712551       4.26795492       4.21932325
O       -5.31572066       3.75744581       4.69097885
N       -3.92056752       5.58847968       4.33359308
C       -4.57054398       6.62799047       5.04196457
C       -5.72074770       6.43129173       5.81075773
C       -6.32019122       7.50399517       6.48157631
C       -5.76967614       8.77996953       6.39035476
Br      -6.58741834      10.22225755       7.29721324
C       -4.62156608       8.99969061       5.63673744
C       -4.02778990       7.92673680       4.96838537
Cl      -2.59655639       8.23849854       4.04143251
H       -0.13302332       2.94545228       2.55821321
H       -1.53932193       4.35984653       3.99532425
H       -5.05083026       2.22767002       2.64748874
H       -3.62582951       0.79630782       1.22429770
H       -3.11511029       5.89296926       3.79694981
H       -6.18136838       5.45285730       5.91063162
H       -7.21731055       7.32623992       7.07049898
H       -4.19044294       9.99438846       5.56685228
C        1.79155008      -1.79155008       1.79155008
C        3.17282722      -1.59656803       1.80256834
C        3.98284408      -2.39877136       2.61247073
C        3.40438590      -3.38994850       3.41843364
C        2.01797319      -3.59112442       3.38252781
C        1.21033538      -2.78837275       2.57337718
C        4.22283105      -4.26101441       4.31055821
O        3.85369886      -5.41407958       4.49636687
N        5.31685747      -3.64300263       4.88278017
C        6.26783056      -4.20250432       5.77016413
C        6.25890587      -5.54459031       6.15930097
C        7.22432426      -6.03440153       7.04703691
C        8.20746746      -5.18464860       7.54788437
Br       9.50482821      -5.85429275       8.74776818
C        8.24121543      -3.84649663       7.17028208
C        7.27536600      -3.36216811       6.28537796
Cl       7.35119357      -1.68983855       5.83545531
H        3.62742633      -0.82991792       1.17934455
H        5.05949877      -2.25428150       2.58071243
H        1.56360333      -4.37223481       3.99015088
H        0.13550926      -2.95057369       2.56035208
H        5.43660583      -2.64876233       4.71966119
H        5.51192694      -6.24173037       5.79119998
H        7.19390155      -7.08207682       7.33807107
H        9.00909795      -3.18359577       7.55898996
C       -0.00445707       0.01189536      -1.78238275
H       -0.66409135       0.67374010      -2.43557963
H        0.65740317      -0.63156657      -2.45157240
C       -0.90989263      -0.90692880      -0.91072765
C        0.90977584       0.90977584      -0.90977584
C       -0.00465871       1.77757030       0.00794375
H       -0.66225468       2.44313916      -0.64384735
H        0.64322798       2.43503045       0.67728295
C       -1.78241447       0.00034974      -0.00472694
H       -2.45427497      -0.65498947       0.64260836
H       -2.43311707       0.67328779      -0.65473579
C       -0.91132561       0.90220522       0.91563759
C       -0.01476271      -0.02253852       1.78660255
H       -0.67934791      -0.69751639       2.42135241
H        0.63392994       0.61504881       2.47327442
C        0.01484550      -1.77751727      -0.01636693
H        0.67870853      -2.42144646      -0.68295456
H       -0.62264859      -2.45592969       0.64226336
C        1.78714474       0.01002794       0.00389507
H        2.44202412       0.67113390       0.66197326
H        2.45385902      -0.65136977      -0.64189061
C        0.91606151      -0.90478549       0.90901405
