165
Properties=species:S:1:pos:R:3 pbc="F F F"
C        0.00000000       0.00000000       0.00000000
C        4.59979750       3.04713691      -3.49351493
O        3.22586071       3.35592882      -3.28700395
C        2.50209595       2.51545577      -2.48053273
C        3.03851373       1.39958014      -1.82384948
C        2.23277083       0.58951490      -1.02054986
C        0.88210159       0.88210159      -0.88210159
C        0.33096939       1.98011249      -1.53636004
C        1.13417387       2.82676239      -2.32927987
C        0.51984152       4.03743278      -3.02538970
H        1.27947485       4.82175239      -3.13596090
N       -0.54942862       4.59681920      -2.16928245
C       -1.61838094       5.30884834      -2.71970317
C       -2.62609761       5.77969522      -1.86970668
C       -3.76008633       6.41268943      -2.38298819
C       -3.89772555       6.57190173      -3.75864431
C       -2.91869290       6.09553425      -4.62851552
C       -1.79150462       5.43777634      -4.11720500
C       -0.66245670       4.96529548      -4.98680882
H        0.08377771       5.77386386      -5.01061429
C       -0.87843782       4.51449856      -6.39872073
C       -0.03400544       3.51259793      -6.69376955
C        0.78959792       3.12093180      -5.49456272
C       -0.08693976       3.67984264      -4.37914796
H       -0.89991929       2.94947330      -4.21144996
H        5.01031428       3.79498273      -4.17728590
H        4.71886897       2.06613123      -3.96433955
H        5.16036964       3.10896490      -2.55576896
H        4.08619817       1.13173328      -1.91146877
H        2.66907158      -0.26620557      -0.51231618
H       -0.73102761       2.19300127      -1.42689853
H       -0.23395149       4.93081660      -1.26391953
H       -2.54049813       5.63944859      -0.79537762
H       -4.52839681       6.76904491      -1.70219426
H       -3.03389483       6.23752621      -5.69896541
H       -1.54109567       4.98568126      -7.10979596
H        0.06386999       3.05070142      -7.66700771
H        1.77797066       3.58691977      -5.54766348
H        0.89667244       2.03559024      -5.41638940
C       -5.06181224       7.23438794      -4.28742988
C       -6.03673485       7.78922015      -4.73028779
Br      -7.61310225       8.68633690      -5.44635159
C       -4.57145906      -3.57925976      -2.98973052
O       -3.21485262      -3.32031160      -3.33362926
C       -2.48914835      -2.51970884      -2.48922726
C       -2.98869120      -1.97459964      -1.29865251
C       -2.18521339      -1.16444644      -0.49317575
C       -0.88210159      -0.88210159      -0.88210159
C       -0.37395522      -1.40629596      -2.06719074
C       -1.16045025      -2.24977428      -2.87999159
C       -0.58371933      -2.83211187      -4.16683280
H       -1.06087313      -3.79739353      -4.37892149
N        0.85785028      -3.10248712      -3.97203620
C        1.74558118      -3.10457840      -5.05117335
C        3.10648001      -3.32322036      -4.80656394
C        4.04343007      -3.24031351      -5.83870785
C        3.62316674      -2.92789993      -7.12808730
C        2.27692502      -2.68669087      -7.39559102
C        1.33794869      -2.74486132      -6.35656408
C       -0.13604863      -2.57073692      -6.58286205
H       -0.55796905      -3.57583316      -6.73445364
C       -0.67767395      -1.69032647      -7.66678105
C       -1.81356272      -1.10350315      -7.25529616
C       -2.12398242      -1.45705818      -5.82405183
C       -0.73819547      -1.88250086      -5.35135452
H       -0.17560372      -0.95719378      -5.12820647
H       -5.00209752      -4.20214772      -3.77833768
H       -5.15239247      -2.65260885      -2.94433843
H       -4.63785089      -4.13677640      -2.05047621
H       -4.00271462      -2.16406852      -0.96261708
H       -2.58776428      -0.75833117       0.43091325
H        0.64602736      -1.16970961      -2.36518994
H        1.06576603      -3.78077654      -3.24577413
H        3.44898795      -3.54423433      -3.79908171
H        5.09416094      -3.41405108      -5.62295221
H        1.96200961      -2.45571622      -8.40889018
H       -0.27586548      -1.61213853      -8.66637754
H       -2.44200014      -0.47139712      -7.86818186
H       -2.86385166      -2.26206669      -5.78663557
H       -2.49125023      -0.59160686      -5.26579499
C        4.58779295      -2.85316934      -8.19462919
C        5.39566740      -2.79058246      -9.08785803
Br       6.70193205      -2.68938478     -10.53213352
C       -4.58871010       3.52976234       3.02197690
O       -3.21454495       3.32399793       3.33025060
C       -2.49012118       2.51968117       2.48828210
C       -3.00859309       1.92166735       1.33168290
C       -2.20496407       1.11145695       0.52641456
C       -0.88210159       0.88210159       0.88210159
C       -0.35453685       1.45931224       2.03359283
C       -1.14203688       2.30357377       2.84460548
C       -0.54466417       2.94423839       4.09376144
H       -1.04559271       3.90057883       4.29101661
N        0.88082877       3.25271062       3.84479119
C        1.80098833       3.31669140       4.89446750
C        3.14600068       3.56939703       4.59990795
C        4.11659005       3.54848604       5.60369529
C        3.74658605       3.26453232       6.91487422
C        2.41764452       2.99046577       7.23253561
C        1.44560743       2.98638247       6.22270168
C       -0.01437865       2.77406848       6.50120048
H       -0.46326986       3.76996162       6.63502438
C       -0.49385216       1.91236902       7.62856029
C       -1.62261675       1.27786630       7.27187898
C       -1.98827407       1.57579711       5.84102126
C       -0.63205143       2.02858987       5.31140955
H       -0.04738706       1.11447375       5.09914316
H       -5.01441361       4.16388421       3.80428510
H       -5.14090122       2.58461286       3.02382567
H       -4.70187483       4.05470068       2.06852800
H       -4.03805320       2.06886645       1.02248057
H       -2.62273446       0.66380358      -0.37135584
H        0.68120391       1.26401265       2.30606344
H        1.04443323       3.91358262       3.09163525
H        3.44996062       3.76863302       3.57565569
H        5.15406618       3.74766049       5.34924804
H        2.14174761       2.78231788       8.26202652
H       -0.05903286       1.87858433       8.61676437
H       -2.21130746       0.64650924       7.92376242
H       -2.75425969       2.35593580       5.80235843
H       -2.34482409       0.68202736       5.32180063
C        4.74562705       3.25374315       7.95188949
C        5.58232389       3.24470721       8.82038978
Br       6.93519192       3.23009687      10.22468129
C        4.54011525      -2.94451594       3.65581816
O        3.23391945      -3.36113385       3.27374018
C        2.50562500      -2.51299543       2.47946402
C        2.98006649      -1.28621106       1.99566579
C        2.17362163      -0.47645421       1.19275974
C        0.88210159      -0.88210159       0.88210159
C        0.39141450      -2.09237639       1.36365103
C        1.20028996      -2.93746181       2.15246436
C        0.65512713      -4.26984114       2.65769574
H        1.48038627      -4.98408436       2.77271752
N       -0.25963798      -4.83497906       1.64133195
C       -1.29412763      -5.70241141       2.00188680
C       -2.15810502      -6.17462914       1.00678017
C       -3.26184334      -6.96617495       1.33125968
C       -3.51436815      -7.28503320       2.66215543
C       -2.68129427      -6.81227377       3.67437738
C       -1.58713958      -5.99709721       3.35351909
C       -0.60518863      -5.51360053       4.38123571
H        0.21783902      -6.24380378       4.40661306
C       -1.00436185      -5.24038364       5.79875968
C       -0.30522944      -4.19886191       6.27872957
C        0.58390227      -3.60243057       5.21875960
C       -0.11505686      -4.12050721       3.96660049
H       -0.98175413      -3.45867596       3.78408214
H        4.96040619      -3.71819643       4.30398030
H        4.50673125      -2.01294879       4.22965972
H        5.19240345      -2.85043832       2.78226173
H        3.97938971      -0.92897005       2.22104046
H        2.56258325       0.46723780       0.81983675
H       -0.62586278      -2.39427807       1.12045690
H        0.17627424      -5.03746210       0.74704829
H       -1.98426508      -5.91199737      -0.03340421
H       -3.91767036      -7.32008238       0.54043034
H       -2.88386036      -7.07908715       4.70737001
H       -1.67833501      -5.84737273       6.38534383
H       -0.35249117      -3.83702719       7.29704311
H        1.60682280      -3.97332603       5.33240509
H        0.58068748      -2.50973919       5.25822541
C       -4.64621887      -8.11034769       2.99587677
C       -5.59414386      -8.80154856       3.27536839
Br      -7.12685839      -9.91916192       3.72728271
