186
Properties=species:S:1:pos:R:3 pbc="F F F"
C        5.50970152       3.95704094      -4.40341896
O        4.13576474       4.26583284      -4.19690797
C        3.41199997       3.42535980      -3.39043675
C        3.94841775       2.30948417      -2.73375351
C        3.14267485       1.49941892      -1.93045388
C        1.79200561       1.79200561      -1.79200561
C        1.24087341       2.89001652      -2.44626406
C        2.04407789       3.73666641      -3.23918389
C        1.42974555       4.94733681      -3.93529372
H        2.18937887       5.73165642      -4.04586493
N        0.36047540       5.50672323      -3.07918647
C       -0.70847692       6.21875237      -3.62960720
C       -1.71619358       6.68959924      -2.77961070
C       -2.85018231       7.32259346      -3.29289221
C       -2.98782152       7.48180575      -4.66854833
C       -2.00878888       7.00543827      -5.53841955
C       -0.88160059       6.34768036      -5.02710902
C        0.24744732       5.87519951      -5.89671285
H        0.99368173       6.68376788      -5.92051831
C        0.03146620       5.42440259      -7.30862475
C        0.87589859       4.42250195      -7.60367357
C        1.69950194       4.03083583      -6.40446674
C        0.82296427       4.58974667      -5.28905199
H        0.00998474       3.85937732      -5.12135399
H        5.92021831       4.70488675      -5.08718993
H        5.62877299       2.97603526      -4.87424358
H        6.07027367       4.01886892      -3.46567299
H        4.99610219       2.04163731      -2.82137279
H        3.57897561       0.64369846      -1.42222021
H        0.17887641       3.10290529      -2.33680256
H        0.67595253       5.84072062      -2.17382356
H       -1.63059410       6.54935261      -1.70528165
H       -3.61849279       7.67894894      -2.61209828
H       -2.12399081       7.14743023      -6.60886944
H       -0.63119165       5.89558528      -8.01969999
H        0.97377401       3.96060545      -8.57691173
H        2.68787469       4.49682379      -6.45756751
H        1.80657646       2.94549426      -6.32629343
C       -4.15190822       8.14429197      -5.19733390
C       -5.12683082       8.69912417      -5.64019182
Br      -6.70319822       9.59624092      -6.35625561
C       -5.46447192      -3.87358722      -4.53210227
O       -4.14201712      -4.27015011      -4.18633832
C       -3.41481751      -3.42344221      -3.38953680
C       -3.90434005      -2.21741544      -2.86989994
C       -3.09803974      -1.40758620      -2.06692171
C       -1.79200561      -1.79200561      -1.79200561
C       -1.28654137      -2.98123078      -2.30938184
C       -2.09423338      -3.82671882      -3.09897599
C       -1.53227392      -5.13633862      -3.64376354
H       -2.34470998      -5.86545530      -3.75673494
N       -0.58445454      -5.70293836      -2.65899220
C        0.45999367      -6.54040679      -3.05946952
C        1.35465536      -7.01476667      -2.09290505
C        2.46750653      -7.77565913      -2.45715076
C        2.69820331      -8.06121396      -3.79952191
C        1.83405522      -7.58529661      -4.78382755
C        0.73021300      -6.80050404      -4.42289774
C       -0.28330032      -6.31670445      -5.41935491
H       -1.09126181      -7.06359755      -5.44310857
C        0.07977517      -6.00551347      -6.83875524
C       -0.65101620      -4.96934090      -7.28171700
C       -1.52960535      -4.41425240      -6.19094676
C       -0.79345169      -4.94333368      -4.96497756
H        0.06293684      -4.26713107      -4.78652181
H       -5.88224448      -4.64235429      -5.18769622
H       -5.46277905      -2.92974589      -5.08652689
H       -6.09981168      -3.81168920      -3.64331470
H       -4.91547909      -1.87693210      -3.06670110
H       -3.49857530      -0.48038941      -1.66592956
H       -0.25823143      -3.26638863      -2.09396420
H       -0.99688298      -5.93328910      -1.76032462
H        1.19758487      -6.77766826      -1.04395676
H        3.14728655      -8.13193486      -1.68790611
H        2.02007966      -7.82611253      -5.82627600
H        0.75361311      -6.58562206      -7.45208467
H       -0.63303519      -4.58540556      -8.29285045
H       -2.54675183      -4.80441645      -6.29109771
H       -1.55003990      -3.32115515      -6.20716910
C        3.83966218      -8.85506789      -4.17431195
C        4.79563399      -9.51992055      -4.48819861
Br       6.34135955     -10.59493108      -4.99572678
C       -4.39372157       5.51244116       3.96399869
O       -4.19772157       4.13533742       4.26544656
C       -3.39052141       3.41178140       3.42549371
C       -2.72351913       3.95101531       2.31712099
C       -1.92019229       3.14531469       1.50704068
C       -1.79200561       1.79200561       1.79200561
C       -2.45656285       1.23815402       2.88243711
C       -3.24975564       2.04102313       3.72914943
C       -3.95726341       1.42353405       4.93157861
H       -4.06801488       2.17894157       5.71994377
N       -3.11136525       0.34544748       5.48957238
C       -3.67289566      -0.72444903       6.19143602
C       -2.83216880      -1.74039421       6.66124178
C       -3.35647109      -2.87506485       7.28389712
C       -4.73393032      -3.00506106       7.43366330
C       -5.59467532      -2.01763968       6.95803330
C       -5.07223098      -0.88960247       6.31056028
C       -5.93179772       0.24780241       5.83975955
H       -5.95602250       0.98911603       6.65282940
C       -7.34217284       0.04349785       5.37882286
C       -7.62566013       0.89599446       4.38041952
C       -6.41890839       1.71448416       4.00141196
C       -5.31250830       0.82749871       4.56175591
H       -5.14530332       0.01805234       3.82736038
H       -5.07959810       5.92256916       4.71012773
H       -4.85763108       5.64057769       2.98084306
H       -3.45290532       6.06672294       4.03518731
H       -2.80292295       5.00087832       2.05531102
H       -1.40389003       3.58374487       0.65725937
H       -2.35506212       0.17418462       3.08933752
H       -2.20616627       0.65315018       5.83118027
H       -1.75646826      -1.66066356       6.52823545
H       -2.68272935      -3.64983792       7.63966299
H       -6.66669235      -2.12700685       7.09262336
H       -8.06030752      -0.61761068       5.84139679
H       -8.59535231       1.00285135       3.91308754
H       -6.46876855       2.70024622       4.47325123
H       -6.33326168       1.82783054       2.91727194
C       -5.27410873      -4.16991508       8.08552401
C       -5.72650815      -5.14548033       8.63145735
Br      -6.45799974      -6.72288683       9.51418540
C        4.04235703      -5.53501509       4.29278929
O        4.22915910      -4.12488351       4.24446295
C        3.39551951      -3.40314626       3.42913075
C        2.35561165      -3.96210393       2.67393984
C        1.55095577      -3.15796601       1.86362587
C        1.79200561      -1.79200561       1.79200561
C        2.82783209      -1.22242309       2.52689881
C        3.63347667      -2.01346115       3.37299038
C        4.75333699      -1.37218515       4.18685394
H        4.91203036      -1.94619309       5.10867677
N        4.33618541      -0.01317292       4.59702677
C        5.27848583       0.98745714       4.84885396
C        4.82926774       2.26816015       5.19190877
C        5.72876605       3.32307622       5.35961353
C        7.09069377       3.10386575       5.17570454
C        7.56313526       1.84331832       4.81525200
C        6.66005938       0.78891670       4.62204611
C        7.10118701      -0.61120191       4.30697076
H        7.18823891      -1.14335997       5.26636905
C        8.34436624      -0.89782917       3.52229813
C        8.16135480      -1.98522871       2.75549060
C        6.75309415      -2.50720508       2.87450528
C        6.05169187      -1.25672829       3.39334276
H        5.86592338      -0.60533365       2.51945901
H        4.80247998      -5.94917454       4.96064047
H        4.18517308      -5.98752822       3.30635053
H        3.06129329      -5.78615778       4.70736451
H        2.13875762      -5.02491811       2.69543656
H        0.74379349      -3.60867414       1.29242664
H        3.01202961      -0.15191330       2.45464135
H        3.51358156       0.01451740       5.19143255
H        3.76593043       2.45644476       5.31455449
H        5.35488645       4.30804989       5.62571786
H        8.62966778       1.68420598       4.68684706
H        9.28313528      -0.37390575       3.62705260
H        8.92341539      -2.44625630       2.14161951
H        6.72051386      -3.34765096       3.57410117
H        6.35539591      -2.81830567       1.90466258
C        8.01935358       4.18897785       5.35934193
C        8.79710617       5.09775924       5.51313824
Br      10.05466633       6.56718188       5.76181386
C       -0.00445707       0.01189536      -1.78238275
H       -0.66409135       0.67374010      -2.43557963
H        0.65740317      -0.63156657      -2.45157240
C       -0.90989263      -0.90692880      -0.91072765
C        0.90977584       0.90977584      -0.90977584
C       -0.00465871       1.77757030       0.00794375
H       -0.66225468       2.44313916      -0.64384735
H        0.64322798       2.43503045       0.67728295
C       -1.78241447       0.00034974      -0.00472694
H       -2.45427497      -0.65498947       0.64260836
H       -2.43311707       0.67328779      -0.65473579
C       -0.91132561       0.90220522       0.91563759
C       -0.01476271      -0.02253852       1.78660255
H       -0.67934791      -0.69751639       2.42135241
H        0.63392994       0.61504881       2.47327442
C        0.01484550      -1.77751727      -0.01636693
H        0.67870853      -2.42144646      -0.68295456
H       -0.62264859      -2.45592969       0.64226336
C        1.78714474       0.01002794       0.00389507
H        2.44202412       0.67113390       0.66197326
H        2.45385902      -0.65136977      -0.64189061
C        0.91606151      -0.90478549       0.90901405
