190
Properties=species:S:1:pos:R:3 pbc="F F F"
C        1.79118268       1.79118268      -1.79118268
C        1.25288653       2.39528013      -2.92414658
C        2.05918784       3.20734077      -3.72506260
C        3.41126482       3.41224584      -3.40531330
C        3.93622511       2.79426907      -2.26034265
C        3.12842791       1.98856054      -1.45363217
C        4.27378400       4.29787899      -4.27401149
N        4.08784646       5.70943445      -3.95471768
N        3.16865005       6.41659247      -4.64946675
C        3.17994231       7.62484896      -4.07486599
C        2.22860653       8.66081415      -4.54078366
C        4.12791132       7.69188022      -3.02302815
N        4.36785983       8.77993751      -2.17426005
S        3.84140847       8.70884953      -0.54990735
O        4.69266056       7.80716752       0.19194365
O        3.64417939      10.08313084      -0.13994225
C        2.22647231       7.96578197      -0.69667635
C        1.12739262       8.77167894      -1.01086168
C       -0.11904979       8.17847283      -1.21974831
C       -0.25707803       6.79418717      -1.09593899
Br      -1.93527942       5.98956518      -1.42366534
C        0.83216824       5.99736227      -0.74294525
C        2.08069385       6.58354351      -0.53228811
C        4.75303684       6.46386996      -3.01611882
C        5.89124596       5.96163667      -2.20756686
H        0.21018760       2.24514816      -3.19174623
H        1.62500389       3.68778474      -4.60174752
H        4.97934678       2.93339023      -1.98388387
H        3.55098638       1.52014466      -0.56908318
H        4.02663173       4.15699028      -5.33315547
H        5.33534519       4.05504616      -4.16340151
H        2.17526738       9.50320457      -3.84244658
H        1.21773872       8.24675491      -4.63208944
H        2.53351087       9.05138333      -5.51552681
H        4.13035698       9.70336610      -2.53259061
H        1.23579448       9.84864365      -1.11704109
H       -0.97124922       8.79826311      -1.48804926
H        0.72399886       4.91934925      -0.64566606
H        2.93359167       5.95885686      -0.27864653
H        6.61245760       5.42511212      -2.83069766
H        5.54140158       5.29130600      -1.41620879
H        6.43403173       6.78734560      -1.73564042
C       -1.79118268      -1.79118268      -1.79118268
C       -1.95825653      -1.47690895      -3.13714777
C       -2.75914078      -2.28893938      -3.94351105
C       -3.40707129      -3.41391735      -3.40783532
C       -3.22770613      -3.71404119      -2.04908951
C       -2.41991935      -2.90730933      -1.24339194
C       -4.26590695      -4.29017317      -4.28959437
N       -3.46127945      -5.24027188      -5.05044726
N       -3.04903131      -4.89489361      -6.29078436
C       -2.28100948      -5.91924474      -6.67940305
C       -1.58861442      -5.85388269      -7.98770722
C       -2.22306818      -6.93127586      -5.68847565
N       -1.47319643      -8.11336410      -5.73549687
S       -0.08176149      -8.26373502      -4.75466885
O       -0.48176439      -8.44773117      -3.37838887
O        0.77707835      -9.21122487      -5.43310597
C        0.67894245      -6.65783944      -4.91003365
C        1.49425459      -6.38980680      -6.01438104
C        2.01270672      -5.10504479      -6.18683327
C        1.72642975      -4.11067042      -5.24880745
Br       2.39229330      -2.36134014      -5.50890425
C        0.94607305      -4.39143855      -4.12711026
C        0.42500809      -5.67334338      -3.94819018
C       -3.05473853      -6.50058970      -4.67769738
C       -3.47445565      -7.16619837      -3.41979547
H       -1.46960997      -0.60773578      -3.56973624
H       -2.87203230      -2.04316627      -4.99933758
H       -3.71455280      -4.57891550      -1.60315259
H       -2.28996835      -3.15636751      -0.19387836
H       -4.83208559      -3.68057152      -5.00412038
H       -5.00031872      -4.85078958      -3.70268456
H       -0.81788617      -6.62744336      -8.07558900
H       -1.09507932      -4.88375496      -8.11774880
H       -2.30019327      -5.99423445      -8.80599328
H       -1.23616724      -8.47072283      -6.65942362
H        1.70987725      -7.16080112      -6.75055536
H        2.62714594      -4.88552303      -7.05668607
H        0.72415976      -3.61691471      -3.39625922
H       -0.20106354      -5.88509073      -3.08494078
H       -4.55083252      -7.06062156      -3.25681331
H       -2.94449078      -6.74440115      -2.56002443
H       -3.26373851      -8.24026589      -3.45301334
C       -1.79118268       1.79118268       1.79118268
C       -3.17141631       1.79208203       1.60881491
C       -3.97664025       2.59363377       2.42131719
C       -3.40716298       3.40773367       3.41392732
C       -2.01433413       3.39439055       3.58211215
C       -1.20851216       2.58651454       2.77559392
C       -4.28698986       4.26621912       4.29246550
N       -4.86106213       3.49846724       5.39246922
N       -6.07747559       2.93305957       5.22417411
C       -6.27997407       2.24563399       6.35404920
C       -7.50632822       1.42656478       6.49731133
C       -5.19506838       2.39333207       7.25441924
N       -5.04622040       1.77398065       8.50185635
S       -3.91145599       0.50857450       8.68013487
O       -2.57487572       1.05769509       8.67531361
O       -4.39840285      -0.30510147       9.77395111
C       -4.13916665      -0.43194489       7.18170887
C       -5.17015764      -1.37464780       7.11442340
C       -5.40967721      -2.04258097       5.91207510
C       -4.60883212      -1.77528275       4.79949875
Br      -4.96429071      -2.64755569       3.16121608
C       -3.55567804      -0.86411289       4.88091061
C       -3.31031719      -0.19327425       6.07948254
C       -4.32621722       3.26797175       6.63883664
C       -3.06215522       3.87692502       7.12136924
H       -3.63120879       1.17310838       0.84276482
H       -5.05732053       2.57644458       2.28077104
H       -1.54155752       4.01241603       4.34264733
H       -0.13192417       2.58656509       2.92172496
H       -5.11403901       4.69151037       3.71122810
H       -3.73088398       5.11014400       4.71276488
H       -7.43530615       0.73866185       7.34695053
H       -7.67603564       0.82124997       5.59929747
H       -8.37891576       2.06633579       6.65516945
H       -5.90022421       1.48824718       8.97784229
H       -5.80055695      -1.57648279       7.97740507
H       -6.22555082      -2.75855785       5.84807019
H       -2.93156509      -0.65694989       4.01439897
H       -2.50298313       0.53273519       6.13537674
H       -3.02693580       4.94640219       6.89492940
H       -2.19536798       3.39059880       6.66294958
H       -2.96813438       3.78075829       8.20812508
C        1.79118268      -1.79118268       1.79118268
C        3.01975224      -1.31342180       2.23913921
C        3.82126755      -2.11870086       3.05162279
C        3.40545814      -3.41060684       3.41275899
C        2.16481831      -3.87520722       2.95081129
C        1.35829935      -3.06733146       2.14498981
C        4.27632545      -4.27169463       4.29765440
N        4.11170726      -3.93296550       5.70732583
N        4.94906467      -3.02639040       6.25925421
C        4.49448652      -2.87649030       7.50868045
C        5.13937554      -1.88724425       8.40358455
C        3.37496344      -3.70943674       7.75841950
N        2.61695864      -3.77043113       8.93466763
S        1.04569856      -3.09855563       8.95591117
O        0.14889599      -3.95028072       8.20870772
O        0.78858600      -2.74318201      10.33548448
C        1.26130350      -1.57655156       8.05107558
C        1.74658147      -0.44639160       8.71696017
C        2.00589252       0.71740924       7.99068806
C        1.76217849       0.74487240       6.61574204
Br       2.15683083       2.30681818       5.62793845
C        1.24015533      -0.37101268       5.96130775
C        0.97823107      -1.53732438       6.68097002
C        3.19530851      -4.43618804       6.60152906
C        2.24562103      -5.53102172       6.28380673
H        3.36201143      -0.31845443       1.96661613
H        4.77472756      -1.73037028       3.40943831
H        1.81267989      -4.87070702       3.21323397
H        0.39921679      -3.44232553       1.79867190
H        5.33458747      -4.14078600       4.04140401
H        4.05029997      -5.33488510       4.16860779
H        4.53260995      -1.69342638       9.29488220
H        5.27868185      -0.93001876       7.88788247
H        6.11666285      -2.24902405       8.73473410
H        3.08181112      -3.48847469       9.79602788
H        1.94587310      -0.46971333       9.78589280
H        2.40615630       1.59088919       8.49979605
H        1.04956718      -0.34886876       4.89057823
H        0.59197033      -2.41333480       6.16578992
H        2.74869770      -6.35301054       5.76655915
H        1.42720959      -5.16682264       5.65488413
H        1.80950653      -5.95148846       7.19602275
C       -0.00445707       0.01189536      -1.78238275
H       -0.66409135       0.67374010      -2.43557963
H        0.65740317      -0.63156657      -2.45157240
C       -0.90989263      -0.90692880      -0.91072765
C        0.90977584       0.90977584      -0.90977584
C       -0.00465871       1.77757030       0.00794375
H       -0.66225468       2.44313916      -0.64384735
H        0.64322798       2.43503045       0.67728295
C       -1.78241447       0.00034974      -0.00472694
H       -2.45427497      -0.65498947       0.64260836
H       -2.43311707       0.67328779      -0.65473579
C       -0.91132561       0.90220522       0.91563759
C       -0.01476271      -0.02253852       1.78660255
H       -0.67934791      -0.69751639       2.42135241
H        0.63392994       0.61504881       2.47327442
C        0.01484550      -1.77751727      -0.01636693
H        0.67870853      -2.42144646      -0.68295456
H       -0.62264859      -2.45592969       0.64226336
C        1.78714474       0.01002794       0.00389507
H        2.44202412       0.67113390       0.66197326
H        2.45385902      -0.65136977      -0.64189061
C        0.91606151      -0.90478549       0.90901405
