169
Properties=species:S:1:pos:R:3 pbc="F F F"
C        0.00000000       0.00000000       0.00000000
C        0.88144258       0.88144258      -0.88144258
C        1.90734267       0.30606083      -1.62756396
C        2.71734726       1.11046759      -2.43639475
C        2.50401140       2.49375495      -2.50236722
C        1.47117344       3.05873515      -1.73830243
C        0.65933121       2.25484564      -0.93193684
C        3.35241351       3.40057894      -3.34621737
N        3.42371886       4.66070368      -3.01756856
N        4.12563223       5.55251187      -3.83771883
C        5.36500322       5.32579765      -4.15733221
C        6.16078936       4.10207313      -3.85579777
C        5.57445282       2.91727217      -4.09088774
C        4.13178581       2.81327872      -4.51045998
C        6.33515894       1.67964235      -3.90569903
C        6.98387963       1.08776988      -4.99500124
C        7.70917384      -0.09216547      -4.82219599
C        7.78572809      -0.68630387      -3.56312357
C        7.14641456      -0.09741461      -2.47275696
C        6.42938688       1.08798271      -2.64086882
C        6.09869303       6.37271853      -4.94024756
C        7.13073903       6.03701013      -5.83023249
C        7.77610370       7.03273068      -6.56956393
C        7.38854125       8.36379396      -6.42472829
Br       8.25855623       9.70567766      -7.43211330
C        6.36021509       8.70984313      -5.55028194
C        5.71324560       7.71436837      -4.81219014
H        2.09046147      -0.76488975      -1.58389967
H        3.51822342       0.62688402      -2.98639439
H        1.28953637       4.13200521      -1.76823939
H       -0.13736670       2.71213547      -0.35105545
H        7.19334717       4.21244027      -3.54764791
H        3.93532354       3.39628110      -5.41780920
H        3.83364864       1.78925658      -4.74535547
H        6.93150430       1.54169497      -5.98186028
H        8.21588260      -0.54730546      -5.66966828
H        8.34846879      -1.60722410      -3.43033459
H        7.20924932      -0.55935502      -1.49057278
H        5.94180790       1.54324861      -1.78123638
H        7.43131848       5.00369002      -5.98144713
H        8.56931487       6.75813043      -7.26009674
H        6.04977538       9.74541245      -5.43869729
H        4.90554065       7.99083025      -4.13649742
C       -0.88144258      -0.88144258      -0.88144258
C       -2.09103175      -1.36335420      -0.38658150
C       -2.90150582      -2.17150971      -1.19119407
C       -2.50531838      -2.50048733      -2.49432787
C       -1.28001397      -2.01325723      -2.97493981
C       -0.47086492      -1.20301791      -2.17223086
C       -3.33399856      -3.37270457      -3.39250669
N       -2.73287609      -4.01124439      -4.35787062
N       -3.48804004      -4.75480151      -5.27302138
C       -4.31019514      -5.67451866      -4.86341929
C       -4.68091352      -5.98438172      -3.45336501
C       -4.98009328      -4.94578662      -2.65673284
C       -4.82030732      -3.52012296      -3.11509424
C       -5.44361932      -5.18804778      -1.28883323
C       -6.81452641      -5.23859097      -1.01353337
C       -7.25977212      -5.46859434       0.28916209
C       -6.33841404      -5.64487219       1.32073843
C       -4.97100769      -5.60176011       1.05101089
C       -4.52334989      -5.38242297      -0.25246555
C       -5.00309878      -6.51609890      -5.89246143
C       -6.27753902      -7.05743535      -5.66300728
C       -6.91160524      -7.81301793      -6.65377513
C       -6.27612105      -8.02478130      -7.87616115
Br      -7.14045773      -9.04033370      -9.21555575
C       -5.01404657      -7.48654756      -8.11974602
C       -4.38038724      -6.72931105      -7.13010581
H       -2.41124354      -1.12250178       0.62427395
H       -3.82639121      -2.54314030      -0.76197032
H       -0.94764200      -2.26000420      -3.98213477
H        0.47257820      -0.83320795      -2.56519448
H       -4.77869070      -7.02077646      -3.15396820
H       -5.38801860      -3.32832081      -4.03307444
H       -5.18753584      -2.79798767      -2.38273719
H       -7.54279661      -5.10260611      -1.80965683
H       -8.32567377      -5.51174982       0.49917816
H       -6.68646689      -5.82088013       2.33576773
H       -4.25306090      -5.74261548       1.85520929
H       -3.45408467      -5.35946072      -0.45274750
H       -6.80496800      -6.88236026      -4.72912737
H       -7.90131406      -8.22091776      -6.46531022
H       -4.51715964      -7.64313985      -9.07358563
H       -3.39766449      -6.30535572      -7.32984810
C       -0.88144258       0.88144258       0.88144258
C       -0.31727214       1.57248322       1.95121209
C       -1.12172465       2.38112169       2.76136327
C       -2.49382182       2.50201425       2.50429751
C       -3.04796276       1.79292310       1.42732516
C       -2.24388089       0.98682633       0.61540647
C       -3.40073035       3.34789109       3.35058838
N       -4.67285313       3.06083911       3.36829886
N       -5.56048728       3.88742283       4.06795282
C       -5.36622984       4.15737470       5.32452854
C       -4.18154125       3.78723575       6.14988325
C       -2.96996354       4.00066710       5.61198209
C       -2.80214257       4.46440056       4.18898139
C       -1.76628117       3.74743112       6.40678804
C       -1.16111198       4.79329803       7.11224074
C       -0.01341785       4.55561165       7.87017487
C        0.53527775       3.27488030       7.92294524
C       -0.06727277       2.22753240       7.22695174
C       -1.22086553       2.46044337       6.47692951
C       -6.41114167       4.95107091       6.04944654
C       -6.08176851       5.79389569       7.12231744
C       -7.07394077       6.54524070       7.75921683
C       -8.39489589       6.45958885       7.32257875
Br      -9.73163905       7.48314153       8.18156661
C       -8.73420690       5.63251805       6.25361521
C       -7.74218316       4.88247342       5.61514753
H        0.74464163       1.48569046       2.16842255
H       -0.64801883       2.88696925       3.59651375
H       -4.11270366       1.86603513       1.21104218
H       -2.69250074       0.44908329      -0.21575981
H       -4.33781246       3.44873094       7.16689194
H       -3.34732846       5.39744080       4.00464459
H       -1.76113571       4.67356272       3.93356227
H       -1.57969661       5.79647133       7.07889160
H        0.45200366       5.36940893       8.42084016
H        1.43121943       3.09156193       8.51123678
H        0.35911234       1.22840144       7.27117799
H       -1.68748136       1.63386465       5.94494688
H       -5.05498869       5.89913003       7.46233691
H       -6.80401127       7.19894585       8.58458491
H       -9.76156686       5.56727536       5.90504289
H       -8.01297436       4.24414028       4.77575367
C        0.88144258      -0.88144258       0.88144258
C        0.48357180      -2.18401913       1.17337652
C        1.28849871      -2.99483445       1.98087644
C        2.49496777      -2.50590176       2.49926404
C        2.87748601      -1.18867051       2.20205449
C        2.07481143      -0.37872191       1.39258035
C        3.38774435      -3.33240895       3.37905652
N        4.20437418      -2.71246350       4.18515342
N        5.11876277      -3.44957166       4.94752850
C        4.71417276      -4.41169757       5.72226276
C        3.33244105      -4.96120672       5.82501248
C        2.68897807      -5.21862353       4.67501113
C        3.27185773      -4.84654737       3.33711942
C        1.36677106      -5.84750387       4.70622539
C        1.24961325      -7.23613589       4.58090161
C       -0.00904828      -7.83872398       4.60952867
C       -1.15384665      -7.05699521       4.75939923
C       -1.04255951      -5.67326986       4.89104656
C        0.21547836      -5.06946295       4.87329710
C        5.72354756      -5.08686640       6.60124516
C        5.58917584      -6.43272467       6.97608114
C        6.56285790      -7.04373918       7.77180122
C        7.67387897      -6.31320918       8.18997534
Br       8.99162729      -7.14560569       9.25911421
C        7.82332661      -4.97845118       7.81856237
C        6.85097842      -4.36752778       7.02129791
H       -0.45229259      -2.57768925       0.78407472
H        0.93373508      -3.99649507       2.20127168
H        3.80770032      -0.78406040       2.59802024
H        2.39140604       0.63726980       1.17168797
H        2.93996234      -5.21000669       6.80346632
H        4.26480190      -5.28903853       3.19557342
H        2.66678489      -5.20140314       2.50007267
H        2.13511886      -7.85644107       4.46349962
H       -0.09655887      -8.91843619       4.51636811
H       -2.13409950      -7.52725745       4.77842134
H       -1.93534385      -5.06457218       5.01123875
H        0.29087435      -3.98980189       4.98561665
H        4.74665867      -7.03069802       6.63909894
H        6.44966330      -8.08852435       8.04935439
H        8.69105172      -4.40640205       8.13643136
H        6.97780276      -3.32659113       6.72847443
