177
Properties=species:S:1:pos:R:3 pbc="F F F"
C        0.00000000       0.00000000       0.00000000
C        0.88144258       0.88144258      -0.88144258
C        1.90734267       0.30606083      -1.62756396
C        2.71734726       1.11046759      -2.43639475
C        2.50401140       2.49375495      -2.50236722
C        1.47117344       3.05873515      -1.73830243
C        0.65933121       2.25484564      -0.93193684
C        3.35241351       3.40057894      -3.34621737
N        3.42371886       4.66070368      -3.01756856
N        4.12563223       5.55251187      -3.83771883
C        5.36500322       5.32579765      -4.15733221
C        6.16078936       4.10207313      -3.85579777
C        5.57445282       2.91727217      -4.09088774
C        4.13178581       2.81327872      -4.51045998
C        6.33515894       1.67964235      -3.90569903
C        6.98387963       1.08776988      -4.99500124
C        7.70917384      -0.09216547      -4.82219599
C        7.78572809      -0.68630387      -3.56312357
C        7.14641456      -0.09741461      -2.47275696
C        6.42938688       1.08798271      -2.64086882
C        6.09869303       6.37271853      -4.94024756
C        7.13073903       6.03701013      -5.83023249
C        7.77610370       7.03273068      -6.56956393
C        7.38854125       8.36379396      -6.42472829
C        6.36021509       8.70984313      -5.55028194
C        5.71324560       7.71436837      -4.81219014
H        2.09046147      -0.76488975      -1.58389967
H        3.51822342       0.62688402      -2.98639439
H        1.28953637       4.13200521      -1.76823939
H       -0.13736670       2.71213547      -0.35105545
H        7.19334717       4.21244027      -3.54764791
H        3.93532354       3.39628110      -5.41780920
H        3.83364864       1.78925658      -4.74535547
H        6.93150430       1.54169497      -5.98186028
H        8.21588260      -0.54730546      -5.66966828
H        8.34846879      -1.60722410      -3.43033459
H        7.20924932      -0.55935502      -1.49057278
H        5.94180790       1.54324861      -1.78123638
H        7.43131848       5.00369002      -5.98144713
H        8.56931487       6.75813043      -7.26009674
H        6.04977538       9.74541245      -5.43869729
H        4.90554065       7.99083025      -4.13649742
C        8.05138174       9.38613825      -7.19222723
C        8.60651065      10.24235160      -7.83500759
Br       9.50410716      11.62677616      -8.87432908
C       -0.88144258      -0.88144258      -0.88144258
C       -1.65939096      -1.88052788      -0.30104862
C       -2.46833309      -2.69044260      -1.10543391
C       -2.50257102      -2.50383672      -2.49372583
C       -1.70675223      -1.49796154      -3.06349725
C       -0.90022694      -0.68617154      -2.25971522
C       -3.34526589      -3.35350947      -3.40043445
N       -2.99323145      -3.45675804      -4.65200160
N       -3.80957332      -4.16016669      -5.54612291
C       -4.15859223      -5.38813015      -5.30141071
C       -3.89749554      -6.16484284      -4.05632186
C       -4.14410983      -5.55014434      -2.88835856
C       -4.53642272      -4.09764356      -2.82145824
C       -3.99887886      -6.28920574      -1.63241572
C       -5.11257587      -6.90413240      -1.04994248
C       -4.97786516      -7.60871660       0.14737739
C       -3.73261122      -7.69817201       0.76823544
C       -2.61809941      -7.09260955       0.18895205
C       -2.74817746      -6.39649189      -1.01356905
C       -4.93528401      -6.12717426      -6.34920085
C       -5.85241556      -7.13439658      -6.01116951
C       -6.58477023      -7.78497955      -7.00864852
C       -6.40579831      -7.42733684      -8.34392834
C       -5.50406948      -6.42373407      -8.69253661
C       -4.77291666      -5.77152732      -7.69536013
H       -1.64065556      -2.04279816       0.77398234
H       -3.04387318      -3.47033336      -0.61729529
H       -1.71174980      -1.33749114      -4.14054003
H       -0.29442266       0.08946230      -2.72086386
H       -3.60814736      -7.20532059      -4.13996740
H       -5.42789194      -3.89506934      -3.42645256
H       -4.78548168      -3.77428165      -1.80849737
H       -6.08899104      -6.84140448      -1.52466402
H       -5.84425139      -8.08924073       0.59524670
H       -3.62948609      -8.24470897       1.70261578
H       -1.64672732      -7.16553816       0.67179840
H       -1.87001999      -5.93533327      -1.46093962
H       -6.03010922      -7.41098108      -4.97536534
H       -7.29649322      -8.55864779      -6.73240102
H       -5.36574616      -6.13655379      -9.73158517
H       -4.07569808      -4.98311481      -7.97405543
C       -7.16613502      -8.09536873      -9.36824347
C       -7.80291701      -8.65484544     -10.22610739
Br      -8.83253964      -9.55947197     -11.61320079
C       -0.88144258       0.88144258       0.88144258
C       -0.29463140       1.72055458       1.82578147
C       -1.09898627       2.52971114       2.63551218
C       -2.49369076       2.50296232       2.50348050
C       -3.06944151       1.64614461       1.55262489
C       -2.26585798       0.83930282       0.74095290
C       -3.40003179       3.34347165       3.35570637
N       -4.63158997       2.94792144       3.52247968
N       -5.52993993       3.75674497       4.22917803
C       -5.25229877       4.16383087       5.43200345
C       -3.96876631       3.98219212       6.16770182
C       -2.83615525       4.24878085       5.49767663
C       -2.84100371       4.58488783       4.02963298
C       -1.54787611       4.18173878       6.19088543
C       -0.98722944       5.34077438       6.73864693
C        0.24076829       5.28059799       7.39937467
C        0.91398736       4.06475829       7.51177687
C        0.35691883       2.90540703       6.97326872
C       -0.87576051       2.96109674       6.32138116
C       -6.30111987       4.92857541       6.18196384
C       -5.96155821       5.89764868       7.13877476
C       -6.96177651       6.61651889       7.80010291
C       -8.30159745       6.37208051       7.50338553
C       -8.65219723       5.41812385       6.55001908
C       -7.65239166       4.70037695       5.88703551
H        0.78573799       1.74974435       1.94546503
H       -0.60462167       3.15439572       3.37248444
H       -4.15120008       1.60323286       1.43534803
H       -2.73189822       0.18561062       0.00831538
H       -4.00062721       3.73174349       7.22106465
H       -3.48856959       5.44356951       3.81727475
H       -1.85203488       4.85961740       3.65660842
H       -1.50274090       6.29488847       6.65743017
H        0.67174881       6.18213843       7.82785581
H        1.87210062       4.01966334       8.02401655
H        0.88073338       1.95704967       7.06415079
H       -1.30502588       2.04859809       5.91266892
H       -4.92382048       6.12603209       7.36660305
H       -6.68466978       7.36876735       8.53410491
H       -9.69515923       5.22850063       6.31022525
H       -7.93309112       3.96192569       5.13785151
C       -9.32905925       7.11855500       8.18213297
C      -10.18955851       7.74372739       8.75058395
Br     -11.58091302       8.75457827       9.66972110
C        0.88144258      -0.88144258       0.88144258
C        1.02715033      -0.58023677       2.23358036
C        1.83414250      -1.38548313       3.04458397
C        2.49832485      -2.49560088       2.50620784
C        2.34720743      -2.78068167       1.14032192
C        1.53838790      -1.97791274       0.32981305
C        3.38371093      -3.38345769       3.33204120
N        4.30901640      -4.07097035       2.72200434
N        5.08724193      -4.98192328       3.44669772
C        5.73972373      -4.60320633       4.50520303
C        5.67110016      -3.27312419       5.17443590
C        4.45022260      -2.75318367       5.37920646
C        3.20604382      -3.40893396       4.84054673
C        4.30940872      -1.49529031       6.11580130
C        4.05927807      -1.51506327       7.49230940
C        3.92382685      -0.31807040       8.19730712
C        4.03380087       0.90123635       7.52998327
C        4.28926915       0.92691599       6.15940375
C        4.43556037      -0.26844562       5.45423242
C        6.64740625      -5.59315289       5.17109998
C        6.89564317      -5.55049557       6.55184291
C        7.72278323      -6.50611874       7.14949633
C        8.29890766      -7.50795914       6.37019669
C        8.05451154      -7.56629897       4.99952966
C        7.22595192      -6.61213589       4.40171630
H        0.52346356       0.28064681       2.66665463
H        1.93770671      -1.10576211       4.08803301
H        2.85790372      -3.63441534       0.69746191
H        1.43206495      -2.21849778      -0.72473851
H        6.58601017      -2.82498705       5.54243813
H        3.11872217      -4.44614791       5.18454376
H        2.29114829      -2.90995826       5.16715416
H        3.97145080      -2.45973860       8.02387015
H        3.73391630      -0.33664619       9.26768294
H        3.92498274       1.83310275       8.07969929
H        4.37824434       1.87799607       5.64021882
H        4.64338460      -0.23626267       4.38664562
H        6.43538510      -4.79640148       7.18466905
H        7.90135581      -6.46530262       8.22088361
H        8.49593210      -8.34934117       4.38861185
H        7.03313865      -6.66809324       3.33163643
C        9.14555118      -8.49416245       6.99003359
C        9.85461513      -9.32010772       7.50914699
Br      11.00111157     -10.65559137       8.34850946
