198
Properties=species:S:1:pos:R:3 pbc="F F F"
C        1.79089881       1.79089881      -1.79089881
C        3.16353846       1.58888068      -1.82134568
C        3.96405218       2.40080470      -2.63391899
C        3.42233856       3.42896490      -3.43430921
C        2.02864046       3.59349334      -3.38516458
C        1.21854468       2.78973408      -2.56967313
N        4.26597423       4.22410386      -4.25744219
C        4.04789528       5.51694423      -4.82455204
C        5.08861198       5.83663549      -5.62938047
N        5.93851299       4.75838658      -5.60227440
C        5.46118339       3.77563726      -4.77473602
N        6.23634763       2.72131524      -4.76663840
C        7.26499231       3.05232942      -5.64845432
C        7.09661957       4.33897520      -6.17854018
C        7.97340688       4.92025685      -7.09660801
C        9.07463694       4.15123227      -7.49383314
C        9.29530080       2.85640520      -6.99547363
C       10.40122216       2.09102672      -7.39964031
C       10.60120235       0.80288840      -6.89246097
C        9.70210045       0.25611841      -5.97865188
C        8.59482944       0.99399130      -5.56225402
C        8.38872531       2.29202897      -6.06393361
C        2.91924307       6.41845041      -4.61887251
C        2.63089619       6.96722530      -3.36361135
C        1.56079091       7.85664917      -3.21303633
C        0.78250292       8.20200106      -4.31774504
Br      -0.66215241       9.40389827      -4.11623906
C        1.06163817       7.66883522      -5.57301543
C        2.12810790       6.78124242      -5.72146911
H        3.62781314       0.80707926      -1.22635091
H        5.03717484       2.21742595      -2.62682626
H        1.52786437       4.32623212      -4.00832065
H        0.14342256       2.94847593      -2.56420587
H        5.27743067       6.71906200      -6.21603857
H        7.81190685       5.91667825      -7.49375064
H        9.77013158       4.58039830      -8.21312509
H       11.11647762       2.49115831      -8.11352896
H       11.46393321       0.22451376      -7.21538120
H        9.86184099      -0.74614262      -5.58949658
H        7.89230899       0.56408039      -4.85146627
H        3.23529958       6.70779800      -2.49661300
H        1.34491141       8.27539367      -2.23334222
H        0.46149752       7.93495396      -6.43919934
H        2.33629581       6.36776190      -6.70674968
C       -1.79089881      -1.79089881      -1.79089881
C       -3.04482984      -2.18407306      -1.34486191
C       -3.84718314      -2.99102533      -2.16056740
C       -3.42549142      -3.42467528      -3.43544596
C       -2.15613149      -2.99560155      -3.85556534
C       -1.34198244      -2.19249533      -3.04347412
N       -4.27421449      -4.23226314      -4.24104264
C       -3.95908616      -5.09591818      -5.33438721
C       -5.10436948      -5.58123166      -5.86902679
N       -6.13057975      -5.01539303      -5.15320118
C       -5.64897124      -4.20092936      -4.16165607
N       -6.61193122      -3.61900094      -3.49336910
C       -7.77591244      -4.08728101      -4.10258260
C       -7.48987497      -4.97690456      -5.14735542
C       -8.46741313      -5.58711695      -5.93574166
C       -9.80120966      -5.27370935      -5.64478334
C      -10.14798059      -4.39001568      -4.60918336
C      -11.48770784      -4.07976244      -4.32441890
C      -11.81104611      -3.19564878      -3.28985684
C      -10.80630196      -2.60464130      -2.52592747
C       -9.46804285      -2.89405330      -2.78897861
C       -9.13431890      -3.78568945      -3.82467954
C       -2.64461565      -5.45802715      -5.85392320
C       -1.71415704      -6.16480981      -5.08276599
C       -0.47672883      -6.52550862      -5.62823896
C       -0.17143476      -6.18493180      -6.94588247
Br       1.49869351      -6.67238346      -7.68429498
C       -1.08954400      -5.48774606      -7.72619876
C       -2.32242878      -5.12770003      -7.18069061
H       -3.41636262      -1.87246149      -0.37241919
H       -4.82171699      -3.28518170      -1.77452836
H       -1.77877997      -3.24162010      -4.84201707
H       -0.36740829      -1.87979255      -3.40890352
H       -5.26432659      -6.25607953      -6.69212511
H       -8.21344946      -6.26679252      -6.74209376
H      -10.58188089      -5.73273477      -6.24903932
H      -12.29135536      -4.52355932      -4.90625021
H      -12.85409209      -2.96759608      -3.08213999
H      -11.06374840      -1.91693476      -1.72451179
H       -8.68508992      -2.42903596      -2.19372978
H       -1.94494746      -6.43942745      -4.05533567
H        0.23886037      -7.07273310      -5.01977457
H       -0.86019996      -5.22091969      -8.75453117
H       -3.03224106      -4.58021155      -7.79835479
C       -1.79089881       1.79089881       1.79089881
C       -1.25056139       2.90415718       2.41904624
C       -2.06668809       3.70789300       3.22419477
C       -3.43513271       3.42706727       3.42341268
C       -3.94673054       2.29945894       2.76110891
C       -3.13623136       1.48419582       1.95752471
N       -4.23548521       4.27470003       4.23733504
C       -5.47576800       4.01632646       4.89729709
C       -5.92469750       5.15612700       5.47380343
N       -5.00731830       6.12936296       5.16249271
C       -3.97645377       5.61514459       4.41995831
N       -3.11143836       6.53544565       4.07741725
C       -3.62858022       7.70678994       4.63040589
C       -4.82133281       7.46643156       5.32637057
C       -5.55909778       8.46319087       5.96798309
C       -5.05616560       9.76842758       5.89510917
C       -3.86548504      10.06893806       5.21275653
C       -3.36833135      11.38050093       5.14305690
C       -2.18161584      11.65823955       4.45669633
C       -1.47416636      10.63594854       3.82675585
C       -1.94675855       9.32529320       3.87902302
C       -3.13703629       9.03657212       4.57107948
C       -6.20756930       2.75756558       4.99143112
C       -5.67527365       1.64038790       5.64607129
C       -6.42240757       0.46119234       5.74687650
C       -7.70342948       0.40026007       5.19855947
Br      -8.71406886      -1.19102805       5.33494411
C       -8.24771110       1.50544840       4.55032932
C       -7.50122264       2.68009943       4.44949736
H       -0.20317565       3.16481475       2.29325291
H       -1.60643611       4.56874361       3.70624733
H       -4.99890839       2.04358910       2.81991965
H       -3.57353702       0.62264187       1.45992547
H       -6.81105080       5.34795627       6.05352416
H       -6.48289943       8.24601502       6.49342128
H       -5.61630421      10.56433575       6.38301502
H       -3.90127816      12.19758262       5.62230411
H       -1.81026675      12.67969192       4.41386949
H       -0.55357154      10.85830060       3.29332282
H       -1.39486035       8.52924802       3.38374729
H       -4.67866946       1.67961548       6.08142564
H       -5.99848319      -0.40074114       6.25590525
H       -9.24616554       1.46677193       4.12271335
H       -7.93487164       3.53776118       3.93817457
C        1.79089881      -1.79089881       1.79089881
C        1.36894834      -3.06648831       2.13832815
C        2.18452204      -3.86861254       2.94564128
C        3.43546042      -3.42520485       3.42494739
C        3.83204449      -2.13390658       3.04134732
C        3.01965858      -1.32000409       2.23828923
N        4.24218055      -4.27395098       4.23138874
C        5.30320587      -3.95357837       5.13260731
C        5.85581120      -5.09707370       5.60174303
N        5.18351941      -6.12611251       4.98954204
C        4.20118168      -5.64896454       4.16141045
N        3.57509605      -6.61309781       3.53610740
C        4.20318353      -7.77283282       3.98975970
C        5.21577628      -7.48352796       4.91483070
C        6.01405266      -8.45606913       5.52014995
C        5.76800761      -9.78807579       5.16361896
C        4.76608019     -10.13798827       4.24311117
C        4.52630252     -11.47584293       3.88974373
C        3.52478425     -11.80230073       2.96946674
C        2.74969503     -10.80244778       2.38472794
C        2.96836851      -9.46606824       2.71663801
C        3.97054181      -9.12940724       3.64473885
C        5.77689697      -2.63614304       5.54352599
C        4.96215311      -1.74611253       6.25346720
C        5.46390126      -0.50493654       6.66163861
C        6.78130535      -0.15558866       6.36535501
Br       7.46068529       1.51963929       6.91693892
C        7.60461001      -1.03329733       5.66558148
C        7.10268544      -2.26995193       5.25818205
H        0.41561817      -3.45507204       1.79055309
H        1.81753412      -4.86071349       3.20317944
H        4.80095639      -1.73734723       3.32411351
H        3.36654313      -0.32790421       1.96165702
H        6.66475779      -5.25346770       6.29430574
H        6.79484678      -8.19941866       6.22807030
H        6.38093162     -10.56465781       5.61806554
H        5.11784916     -12.27556463       4.32775110
H        3.35172347     -12.84388553       2.70821916
H        1.97414198     -11.06222836       1.66882461
H        2.36454198      -8.68680357       2.25651011
H        3.93447100      -2.01150604       6.49373354
H        4.82182964       0.17905217       7.21086984
H        8.63302613      -0.76953772       5.43308698
H        7.75379961      -2.94791643       4.70909134
C       -0.00445707       0.01189536      -1.78238275
H       -0.66409135       0.67374010      -2.43557963
H        0.65740317      -0.63156657      -2.45157240
C       -0.90989263      -0.90692880      -0.91072765
C        0.90977584       0.90977584      -0.90977584
C       -0.00465871       1.77757030       0.00794375
H       -0.66225468       2.44313916      -0.64384735
H        0.64322798       2.43503045       0.67728295
C       -1.78241447       0.00034974      -0.00472694
H       -2.45427497      -0.65498947       0.64260836
H       -2.43311707       0.67328779      -0.65473579
C       -0.91132561       0.90220522       0.91563759
C       -0.01476271      -0.02253852       1.78660255
H       -0.67934791      -0.69751639       2.42135241
H        0.63392994       0.61504881       2.47327442
C        0.01484550      -1.77751727      -0.01636693
H        0.67870853      -2.42144646      -0.68295456
H       -0.62264859      -2.45592969       0.64226336
C        1.78714474       0.01002794       0.00389507
H        2.44202412       0.67113390       0.66197326
H        2.45385902      -0.65136977      -0.64189061
C        0.91606151      -0.90478549       0.90901405
