174
Properties=species:S:1:pos:R:3 pbc="F F F"
C       -0.54016900       5.88190238      -4.70883363
C       -0.87004064       6.19869551      -3.26298073
O        0.23891796       5.86325564      -2.41711500
C        0.29118635       4.57307518      -1.97922299
O       -0.50959637       3.70631471      -2.30561370
C        1.46156415       4.31733386      -1.13407712
C        2.12732584       3.08647927      -1.08582338
C        1.82251862       1.82251862      -1.82251862
N        3.21626760       3.22725680      -0.24887977
C        4.14486812       2.18226625       0.14444995
C        3.33142694       4.54443921       0.13026229
C        4.44922526       5.14933194       0.82013624
O        5.40692717       4.55014436       1.28767631
C        4.37545996       6.67644162       0.89001340
O        5.37709270       7.34142929       1.11763895
C        3.05248922       7.31863150       0.69774367
C        2.89548057       8.66015917       1.07694934
C        1.64101084       9.26178797       0.99977164
C        0.54929976       8.51288581       0.56929676
C        0.70386662       7.17898748       0.18065833
C        1.96888666       6.57842790       0.18917158
C        2.17674420       5.20272993      -0.25893963
H       -1.34880252       6.20468025      -5.37050040
H       -0.38218301       4.80797210      -4.84938649
H        0.38574956       6.38233576      -5.01053962
H       -1.78675322       5.69346601      -2.93785151
H       -1.04068927       7.27455651      -3.15151564
H        2.72063557       1.24786197      -2.06431153
H        1.28042720       1.99675142      -2.75489561
H        4.33563225       2.26746462       1.21720908
H        5.06390806       2.30713013      -0.43267526
H        3.71400587       1.19825494      -0.04250667
H        3.74468871       9.23193918       1.44848445
H        1.52294603      10.30068599       1.29817096
H       -0.17783874       6.61734236      -0.11311402
C       -0.75663791       9.11804804       0.52564494
C       -1.85036071       9.62487141       0.48908654
Br      -3.61881797      10.44436194       0.42997471
C        0.57613531      -5.67827537      -4.94842695
C        0.97290076      -6.03548927      -3.52904708
O       -0.11435774      -5.77453164      -2.63039921
C       -0.19750126      -4.50442641      -2.14155686
O        0.55746978      -3.59600164      -2.46380018
C       -1.34316639      -4.32538995      -1.24441878
C       -2.05172078      -3.12369477      -1.12421294
C       -1.82251862      -1.82251862      -1.82251862
N       -3.10169183      -3.33717411      -0.25353823
C       -4.05254754      -2.34397430       0.21383742
C       -3.15330176      -4.67095316       0.07865107
C       -4.22055251      -5.34354696       0.78567851
O       -5.18109717      -4.79938272       1.31108467
C       -4.08762908      -6.86822751       0.79396841
O       -5.05443848      -7.57923611       1.03279155
C       -2.75015299      -7.45147710       0.52825304
C       -2.52907906      -8.79909751       0.84948616
C       -1.25708075      -9.34874328       0.70279686
C       -0.21123490      -8.54295927       0.26130536
C       -0.42995080      -7.20251392      -0.06973105
C       -1.71508657      -6.65179794       0.00874153
C       -1.99085382      -5.26945965      -0.37810029
H        1.37011527      -5.94496796      -5.65152545
H        0.37318117      -4.60674938      -5.04160737
H       -0.34152998      -6.20244133      -5.23465362
H        1.88209672      -5.50775600      -3.21890502
H        1.18745185      -7.10737843      -3.46545630
H       -2.74994579      -1.27427909      -2.00858419
H       -1.31061887      -1.94110422      -2.78035113
H       -4.19860918      -2.47613318       1.28885458
H       -4.98785438      -2.48263873      -0.33322034
H       -3.66594808      -1.33786419       0.04904479
H       -3.34159765      -9.41649847       1.22995268
H       -1.08921560     -10.39267070       0.95642525
H        0.41838598      -6.59686395      -0.37413966
C        1.11357867      -9.09539527       0.14605141
C        2.22311004      -9.55806042       0.04952622
Br       4.01712841     -10.30615084      -0.10654684
C       -6.39823320       4.00039242      -0.34805861
C       -6.58215672       2.50207878      -0.49259990
O       -6.04355317       1.82443635       0.65129907
C       -4.71368181       1.52766686       0.60213586
O       -3.97438418       1.84777967      -0.31983181
C       -4.24774378       0.84959599       1.81563536
C       -2.95839522       1.00096756       2.34026571
C       -1.82251862       1.82251862       1.82251862
N       -2.89356654       0.28182896       3.51700867
C       -1.72262978       0.10287118       4.35718345
C       -4.14138823      -0.21296288       3.81717850
C       -4.54896739      -0.83032035       5.05977392
O       -3.80743761      -1.12436143       5.98631903
C       -6.05814001      -1.06182240       5.16557057
O       -6.58881058      -1.24136065       6.25343310
C       -6.84810286      -1.08529243       3.91056662
C       -8.14745383      -1.61319879       3.94443537
C       -8.87746967      -1.73864574       2.76420325
C       -8.29574186      -1.36024239       1.55738934
C       -7.00523945      -0.82405606       1.52101238
C       -6.28293426      -0.62965471       2.70486343
C       -4.95241856      -0.02446886       2.71046407
H       -6.87330172       4.53098759      -1.17791117
H       -5.33648265       4.26548571      -0.32679278
H       -6.83338236       4.35220810       0.59303447
H       -6.13870430       2.12862762      -1.42276763
H       -7.65036367       2.26412112      -0.52910189
H       -1.19098841       2.22049519       2.62132546
H       -2.15427479       2.66567194       1.21212749
H       -1.66700712      -0.94473078       4.66361145
H       -1.81817423       0.76407888       5.22146034
H       -0.81441631       0.33856745       3.80178372
H       -8.58519426      -1.94272125       4.88567043
H       -9.88281717      -2.15175038       2.79439426
H       -6.57205630      -0.57607980       0.55664113
C       -9.03067672      -1.52497258       0.33006106
C       -9.64618466      -1.66293412      -0.69782638
Br     -10.64140895      -1.88600626      -2.35983343
C        7.14566187      -2.39636779       0.50853735
C        6.96310919      -0.90619046       0.72233595
O        6.04842460      -0.66918613       1.80167786
C        4.72538008      -0.64508987       1.47301458
O        4.29566028      -0.85983743       0.34683433
C        3.86517076      -0.41089464       2.63690972
C        2.57968797      -0.94971943       2.77022109
C        1.82251862      -1.82251862       1.82251862
N        2.09535917      -0.58613185       4.01091314
C        0.77293630      -0.87007630       4.53967182
C        3.08640311       0.05654102       4.71574176
C        3.06133345       0.40255583       6.11964334
O        2.09757918       0.29197990       6.86379594
C        4.40640133       0.89932285       6.65480970
O        4.64160824       0.89635088       7.85562567
C        5.40064530       1.40424253       5.67697428
C        6.48571996       2.15715864       6.15012908
C        7.38195281       2.72707119       5.24814556
C        7.17373646       2.56241681       3.88156916
C        6.09966105       1.80411199       3.40664672
C        5.22772705       1.16967157       4.30008750
C        4.12510860       0.32727235       3.84057751
H        7.89895113      -2.58809277      -0.26066577
H        6.20631527      -2.86707937       0.20178094
H        7.45703433      -2.88297465       1.43861595
H        6.63611337      -0.40363086      -0.19517993
H        7.91862133      -0.45589300       1.01086856
H        1.16662636      -2.53187233       2.33431038
H        2.47643628      -2.39504770       1.16059025
H        0.38880745       0.02971255       5.02679288
H        0.85856723      -1.69795252       5.24719370
H        0.08773976      -1.13355547       3.73347225
H        6.62417503       2.31484671       7.21881512
H        8.21950608       3.31299105       5.61894602
H        5.94920642       1.73035390       2.33376512
C        8.07403372       3.18256348       2.94429495
C        8.82803268       3.70193632       2.15932780
Br      10.04718523       4.54171827       0.89010231
C       -0.00445707       0.01189536      -1.78238275
H       -0.66409135       0.67374010      -2.43557963
H        0.65740317      -0.63156657      -2.45157240
C       -0.90989263      -0.90692880      -0.91072765
C        0.90977584       0.90977584      -0.90977584
C       -0.00465871       1.77757030       0.00794375
H       -0.66225468       2.44313916      -0.64384735
H        0.64322798       2.43503045       0.67728295
C       -1.78241447       0.00034974      -0.00472694
H       -2.45427497      -0.65498947       0.64260836
H       -2.43311707       0.67328779      -0.65473579
C       -0.91132561       0.90220522       0.91563759
C       -0.01476271      -0.02253852       1.78660255
H       -0.67934791      -0.69751639       2.42135241
H        0.63392994       0.61504881       2.47327442
C        0.01484550      -1.77751727      -0.01636693
H        0.67870853      -2.42144646      -0.68295456
H       -0.62264859      -2.45592969       0.64226336
C        1.78714474       0.01002794       0.00389507
H        2.44202412       0.67113390       0.66197326
H        2.45385902      -0.65136977      -0.64189061
C        0.91606151      -0.90478549       0.90901405
