166
Properties=species:S:1:pos:R:3 pbc="F F F"
C       -0.54016900       5.88190238      -4.70883363
C       -0.87004064       6.19869551      -3.26298073
O        0.23891796       5.86325564      -2.41711500
C        0.29118635       4.57307518      -1.97922299
O       -0.50959637       3.70631471      -2.30561370
C        1.46156415       4.31733386      -1.13407712
C        2.12732584       3.08647927      -1.08582338
C        1.82251862       1.82251862      -1.82251862
N        3.21626760       3.22725680      -0.24887977
C        4.14486812       2.18226625       0.14444995
C        3.33142694       4.54443921       0.13026229
C        4.44922526       5.14933194       0.82013624
O        5.40692717       4.55014436       1.28767631
C        4.37545996       6.67644162       0.89001340
O        5.37709270       7.34142929       1.11763895
C        3.05248922       7.31863150       0.69774367
C        2.89548057       8.66015917       1.07694934
C        1.64101084       9.26178797       0.99977164
C        0.54929976       8.51288581       0.56929676
Br      -1.16562335       9.30756899       0.51197434
C        0.70386662       7.17898748       0.18065833
C        1.96888666       6.57842790       0.18917158
C        2.17674420       5.20272993      -0.25893963
H       -1.34880252       6.20468025      -5.37050040
H       -0.38218301       4.80797210      -4.84938649
H        0.38574956       6.38233576      -5.01053962
H       -1.78675322       5.69346601      -2.93785151
H       -1.04068927       7.27455651      -3.15151564
H        2.72063557       1.24786197      -2.06431153
H        1.28042720       1.99675142      -2.75489561
H        4.33563225       2.26746462       1.21720908
H        5.06390806       2.30713013      -0.43267526
H        3.71400587       1.19825494      -0.04250667
H        3.74468871       9.23193918       1.44848445
H        1.52294603      10.30068599       1.29817096
H       -0.17783874       6.61734236      -0.11311402
C       -5.05062795       0.58654423      -5.58648329
C       -3.64402531       1.01256085      -5.96017114
O       -2.72356177      -0.06376039      -5.73196644
C       -2.21243788      -0.15949087      -4.47155578
O       -2.53184565       0.57511777      -3.54560416
C       -1.29388938      -1.29289192      -4.32619383
C       -1.14223663      -2.01886023      -3.13853162
C       -1.82251862      -1.82251862      -1.82251862
N       -0.25821276      -3.05063026      -3.38356115
C        0.24101084      -4.00967808      -2.41401718
C        0.05261496      -3.07496600      -4.72325282
C        0.76570574      -4.11923652      -5.42489018
O        1.31565738      -5.07968521      -4.90536739
C        0.74654705      -3.96134549      -6.94708974
O        0.98928516      -4.91233792      -7.67783027
C        0.44942055      -2.61912432      -7.50367328
C        0.74461836      -2.37080586      -8.85250290
C        0.56811075      -1.09261942      -9.37851850
C        0.12304142      -0.06751774      -8.54841248
Br      -0.06866670       1.68104419      -9.24234879
C       -0.18211445      -0.31352434      -7.20655699
C       -0.07357311      -1.60599314      -6.67857673
C       -0.43289426      -1.91064411      -5.29487539
H       -5.77090701       1.37300190      -5.82847304
H       -5.12270777       0.36462451      -4.51709231
H       -5.33050138      -0.32706971      -6.12105385
H       -3.34004569       1.91804608      -5.42256468
H       -3.60172228       1.24558973      -7.02925034
H       -1.98431884      -2.76172110      -1.28676913
H       -2.79040677      -1.32470373      -1.91696373
H        1.31592824      -4.13572155      -2.56609448
H       -0.29294396      -4.95154043      -2.55922906
H        0.08663855      -3.64232409      -1.39908193
H        1.12799717      -3.16672749      -9.48941311
H        0.80162498      -0.90356915     -10.42351689
H       -0.49023491       0.51965845      -6.58204118
C       -5.50707695      -0.59287753       5.13636760
C       -4.16962695      -1.15537139       5.57738003
O       -3.15742130      -0.14158063       5.50344792
C       -2.54232192       0.00561870       4.29554391
O       -2.84038456      -0.63136480       3.29331227
C       -1.53439717       1.07022331       4.30835464
C       -1.23615089       1.86712982       3.19634778
C       -1.82251862       1.82251862       1.82251862
N       -0.30096629       2.80476813       3.58666975
C        0.34263630       3.78981244       2.73550828
C       -0.09639754       2.70593647       4.94326984
C        0.63356817       3.63602495       5.77596418
O        1.29202191       4.58539276       5.37602437
C        0.48223034       3.36879649       7.27532202
O        0.73544081       4.24131080       8.09501305
C        0.04414725       2.01712395       7.70040036
C        0.21243097       1.64780330       9.04331808
C       -0.09861358       0.35247116       9.45194244
C       -0.55053357      -0.57037847       8.51273370
Br      -0.92454581      -2.34445696       9.04988246
C       -0.72943978      -0.20307870       7.17583469
C       -0.48475883       1.11198554       6.76139861
C       -0.70988858       1.54495394       5.38357124
H       -6.30007775      -1.33538757       5.26168797
H       -5.47764501      -0.28801258       4.08554314
H       -5.76060742       0.29832116       5.71969635
H       -3.89129382      -2.04017744       4.99344792
H       -4.22945234      -1.46889650       6.62482705
H       -1.87192159       2.80839180       1.35249568
H       -2.82878310       1.39742878       1.80586235
H        1.40845546       3.81871871       2.97562454
H       -0.13054037       4.75783266       2.91534042
H        0.24266712       3.51138119       1.68605341
H        0.60151084       2.36189384       9.76776044
H        0.03679124       0.06927408      10.49297821
H       -1.04742109      -0.96108964       6.46628619
C       -0.30443655      -6.47286686       3.88213670
C       -0.41972105      -6.63281253       2.37854412
O        0.72607324      -6.06259570       1.73061965
C        0.65861279      -4.72874876       1.45612297
O       -0.28166061      -4.01130270       1.77268994
C        1.87527540      -4.22996137       0.80773835
C        2.37438066      -2.93458409       0.99066375
C        1.82251862      -1.82251862       1.82251862
N        3.56208439      -2.83669611       0.29362367
C        4.38445132      -1.64839919       0.14983390
C        3.89274679      -4.07020675      -0.21734968
C        5.15285096      -4.44523598      -0.81966598
O        6.07113017      -3.68268797      -1.08442293
C        5.28924593      -5.94803030      -1.07538805
O        6.38924734      -6.45651725      -1.24488156
C        4.04896564      -6.75908923      -1.13467782
C        4.11489118      -8.04814482      -1.68434560
C        2.95006999      -8.79618049      -1.84322330
C        1.72680633      -8.24222109      -1.47613861
Br       0.13637515      -9.23114152      -1.73754537
C        1.65838590      -6.96220088      -0.91839100
C        2.82576581      -6.22302696      -0.69064980
C        2.79740851      -4.90349512      -0.06248987
H       -1.13485247      -6.97153149       4.38969912
H       -0.30649861      -5.41574803       4.16592616
H        0.63794614      -6.89777724       4.24290155
H       -1.35095320      -6.19903047       1.99648703
H       -0.43324693      -7.69712846       2.12150136
H        2.60304478      -1.18435607       2.24540821
H        1.20355210      -2.17962385       2.64889827
H        4.70796149      -1.56900529      -0.89107899
H        5.23868913      -1.74059704       0.82442728
H        3.80911758      -0.75424671       0.39140319
H        5.06927040      -8.46362600      -2.00475296
H        3.00514365      -9.79341110      -2.27309370
H        0.68237130      -6.55023829      -0.67999196
C       -0.00445707       0.01189536      -1.78238275
H       -0.66409135       0.67374010      -2.43557963
H        0.65740317      -0.63156657      -2.45157240
C       -0.90989263      -0.90692880      -0.91072765
C        0.90977584       0.90977584      -0.90977584
C       -0.00465871       1.77757030       0.00794375
H       -0.66225468       2.44313916      -0.64384735
H        0.64322798       2.43503045       0.67728295
C       -1.78241447       0.00034974      -0.00472694
H       -2.45427497      -0.65498947       0.64260836
H       -2.43311707       0.67328779      -0.65473579
C       -0.91132561       0.90220522       0.91563759
C       -0.01476271      -0.02253852       1.78660255
H       -0.67934791      -0.69751639       2.42135241
H        0.63392994       0.61504881       2.47327442
C        0.01484550      -1.77751727      -0.01636693
H        0.67870853      -2.42144646      -0.68295456
H       -0.62264859      -2.45592969       0.64226336
C        1.78714474       0.01002794       0.00389507
H        2.44202412       0.67113390       0.66197326
H        2.45385902      -0.65136977      -0.64189061
C        0.91606151      -0.90478549       0.90901405
