153
Properties=species:S:1:pos:R:3 pbc="F F F"
C        0.00000000       0.00000000       0.00000000
C        0.88187113       0.88187113      -0.88187113
C        1.95116270       0.31585908      -1.57469543
C        2.75336717       1.12193733      -2.38494962
C        2.48162811       2.49042506      -2.49680110
C        3.31191658       3.35350359      -3.36005103
N        4.29063991       2.86569762      -4.05193978
N        4.96547779       3.76778197      -4.81525351
C        6.08023133       3.30971803      -5.55157613
N        6.18752504       1.98952377      -5.87825470
N        7.23236251       1.51201479      -6.56256750
C        8.17222280       2.41821550      -6.91488607
C        9.39560971       2.27481393      -7.61617325
C       10.07261994       1.17797062      -8.18698862
C       11.30238379       1.39352622      -8.81256216
C       11.86194617       2.66640133      -8.88251474
C       11.20476191       3.76960736      -8.32688463
C        9.96990162       3.55029212      -7.69586522
N        9.10168411       4.42671598      -7.06361113
C        9.31490564       5.85005292      -6.93939625
C        8.01621166       3.74803182      -6.57311501
N        6.98069610       4.26302090      -5.88247746
C        1.41043339       3.05557984      -1.79868583
C        0.60806280       2.24649641      -0.98923101
H        2.16773487      -0.74655010      -1.49620482
H        3.58438258       0.67716424      -2.93012643
H        3.05417349       4.42714958      -3.39806190
H        5.18428658       4.69067001      -4.45244312
H        9.63594009       0.18462713      -8.13009939
H       12.82177488       2.81584310      -9.37234389
H       11.64845802       4.75894908      -8.38546502
H        8.45937091       6.32031532      -6.44923103
H        9.43557992       6.27006037      -7.94154110
H       10.21652481       6.01203746      -6.34342699
H        1.18671146       4.11575311      -1.88022368
H       -0.22803501       2.68552854      -0.45040893
C       12.00367989       0.27733228      -9.39212654
C       12.59101537      -0.65748015      -9.87751171
Br      13.54068717      -2.16899277     -10.66233848
C       -0.88187113      -0.88187113      -0.88187113
C       -1.81947334      -0.29305155      -1.72919232
C       -2.62132914      -1.09991233      -2.53901265
C       -2.48112307      -2.49188588      -2.49584532
C       -3.31170667      -3.35800814      -3.35575638
N       -4.16764535      -2.85491658      -4.18571537
N       -4.85744578      -3.76385064      -4.92721685
C       -5.84705077      -3.28218675      -5.81228796
N       -5.78881287      -1.99785764      -6.26863299
N       -6.71198592      -1.49809251      -7.09686637
C       -7.70264636      -2.34481480      -7.45786321
C       -8.83511314      -2.16123745      -8.29024630
C       -9.34138875      -1.07040773      -9.02578271
C      -10.52369302      -1.23408914      -9.75069002
C      -11.20104096      -2.45036931      -9.75945197
C      -10.71364939      -3.54721712      -9.04038739
C       -9.52641698      -3.37972783      -8.30991415
N       -8.81398429      -4.26362244      -7.51440450
C       -9.18150943      -5.64114080      -7.28170458
C       -7.71500105      -3.64163494      -6.98072250
N       -6.80545982      -4.17702069      -6.14371395
C       -1.54203682      -3.07949348      -1.64316875
C       -0.73963686      -2.26975271      -0.83440066
H       -1.93310814       0.78725919      -1.77154064
H       -3.34888081      -0.63814620      -3.20464625
H       -3.16217101      -4.44912905      -3.26808491
H       -5.20159219      -4.62086696      -4.50494056
H       -8.81300197      -0.12099670      -9.01666794
H      -12.12176936      -2.55966142     -10.32853110
H      -11.24842253      -4.49218889      -9.05226070
H       -8.42718799      -6.13601633      -6.66571294
H       -9.25129522      -6.14802215      -8.24786403
H      -10.14606826      -5.65772088      -6.76820011
H       -1.42081127      -4.15855952      -1.60331746
H       -0.00588020      -2.72694815      -0.17507412
C      -11.05124729      -0.12274132     -10.49915011
C      -11.49307399       0.80801249     -11.12598543
Br     -12.20747040       2.31296267     -12.13952513
C       -0.88187113       0.88187113       0.88187113
C       -0.37112091       2.07161531       1.39898099
C       -1.17993812       2.87978981       2.20052619
C       -2.49539921       2.49247012       2.48098494
C       -3.36755854       3.34255175       3.31536091
N       -2.94966999       4.47367206       3.78493526
N       -3.85857316       5.16337273       4.52656738
C       -3.44710468       6.37968903       5.11473178
N       -2.39486615       7.07103810       4.58939926
N       -1.96476781       8.21921518       5.12296182
C       -2.63964664       8.65486987       6.21080785
C       -2.45925978       9.79764100       7.02969611
C       -1.54351022      10.86937604       7.02469291
C       -1.64470954      11.84988081       8.01388183
C       -2.63133894      11.78552168       8.99400162
C       -3.55328822      10.73325733       9.01470835
C       -3.44802061       9.74698335       8.02105500
N       -4.19906295       8.60547538       7.78747290
C       -5.33452236       8.19121859       8.57861386
C       -3.70763244       7.92815430       6.70157176
N       -4.16538702       6.76788636       6.19292108
C       -3.00380198       1.29757469       1.96332238
C       -2.19272468       0.49085812       1.16020743
H        0.64831836       2.38184775       1.18386020
H       -0.78143064       3.81164904       2.59859358
H       -4.39190348       2.97734858       3.51013291
H       -4.45948998       4.68039016       5.18751957
H       -0.77262968      10.91759224       6.26044469
H       -2.69452571      12.55734288       9.75809328
H       -4.31942127      10.69043197       9.78301888
H       -5.78410013       7.29059817       8.15421895
H       -6.07019844       8.99994664       8.57703632
H       -4.98933403       7.98736771       9.59528752
H       -4.02447408       0.98775319       2.17046098
H       -2.59015979      -0.43590752       0.75365020
C       -0.70888235      12.94431709       8.01993928
C        0.07487293      13.86090747       8.02501239
Br       1.34213892      15.34295660       8.03321519
C        0.88187113      -0.88187113       0.88187113
C        0.29577367      -1.85084559       1.69509795
C        1.10328633      -2.66021427       2.49675352
C        2.49308047      -2.49489063       2.48088316
C        3.36148542      -3.35178201       3.31220377
N        2.86550526      -4.28967917       4.05309288
N        3.77738683      -5.01344952       4.75767691
C        3.29683742      -6.01589882       5.62878924
N        2.06528613      -6.56592203       5.42409534
N        1.56712971      -7.50763537       6.23217972
C        2.36058330      -7.88437734       7.26036373
C        2.16020168      -8.82317601       8.30321920
C        1.10011575      -9.68377184       8.65369160
C        1.23139074     -10.49259408       9.78448736
C        2.38635007     -10.46322319      10.56128898
C        3.45233475      -9.62013595      10.22878321
C        3.31718921      -8.80566334       9.09320641
N        4.18294226      -7.88415021       8.52491876
C        5.50178965      -7.57549604       9.02706912
C        3.60638583      -7.30875727       7.42221538
N        4.13808075      -6.35667941       6.63143430
C        3.07763048      -1.52056585       1.66650272
C        2.26739146      -0.71242364       0.86397512
H       -0.78246560      -1.98835399       1.71150120
H        0.64436712      -3.42057656       3.12672958
H        4.44940155      -3.16531150       3.26467192
H        4.56483090      -4.55578003       5.20678877
H        0.19834776      -9.70446809       8.04785076
H        2.47092274     -11.09906159      11.43997754
H        4.34942535      -9.60308157      10.84036520
H        5.99999079      -6.85950210       8.36942437
H        6.08290555      -8.50083053       9.06344532
H        5.39752503      -7.14732720      10.02713703
H        4.15545067      -1.38498190       1.64225569
H        2.72280691       0.04184725       0.22694280
C        0.15035430     -11.36948520      10.15329922
C       -0.75501372     -12.10388151      10.46217914
Br      -2.21891723     -13.29133824      10.96161186
