198
Properties=species:S:1:pos:R:3 pbc="F F F"
C        1.79166620       1.79166620      -1.79166620
C        1.35415749       2.15276156      -3.06478209
C        2.15789354       2.96452680      -3.86920355
C        3.40281097       3.39874273      -3.40516748
C        3.82643083       3.04623851      -2.12126651
C        3.02352425       2.23652805      -1.31405107
O        4.22491289       4.24587093      -4.10912994
C        4.31631364       4.19709044      -5.43701784
N        3.99932867       3.17793358      -6.21177378
C        4.24704363       3.61950179      -7.47405965
C        4.72402374       4.89372099      -7.48703129
C        5.03328164       5.59418044      -8.68452751
O        5.47813546       6.73783681      -8.68707040
N        4.78221364       4.84175341      -9.83702321
C        5.03841372       5.48678036     -11.11724112
C        3.82843598       6.23458970     -11.64041006
C        2.88002185       5.58318003     -12.44376178
C        1.76418071       6.27108236     -12.92672795
C        1.58694187       7.61420734     -12.60336529
Br       0.08092990       8.54806892     -13.26166580
C        2.51206286       8.27399440     -11.79794997
C        3.62788016       7.58514805     -11.31614003
C        4.31601125       3.51271073      -9.86180788
O        4.15341612       2.90717411     -10.92555563
N        4.05400389       2.90585004      -8.63149004
C        3.56073375       1.54110224      -8.57056901
N        4.80702620       5.25243415      -6.16964855
C        5.28177252       6.50812634      -5.64637578
H        0.39217705       1.81388348      -3.43991311
H        1.79963181       3.25113444      -4.85420629
H        4.78396157       3.39944120      -1.74811332
H        3.36483452       1.96308169      -0.31940049
H        5.35614865       4.74493254     -11.86018317
H        5.88080909       6.18364708     -11.02233890
H        3.00588901       4.53217421     -12.70151505
H        1.04366746       5.75043754     -13.55206568
H        2.37640741       9.32108475     -11.54017017
H        4.34293473       8.11248900     -10.68646006
H        3.57675067       1.05836253      -9.55134592
H        2.53068640       1.55410366      -8.20136468
H        4.18835860       0.95923900      -7.88769265
H        5.51544272       6.40232171      -4.58427209
H        4.49755861       7.25595914      -5.78563045
H        6.19091548       6.79703222      -6.17869052
C       -1.79166620      -1.79166620      -1.79166620
C       -2.76906494      -2.59531825      -1.20731795
C       -3.57998664      -3.39735552      -2.01428172
C       -3.40032280      -3.40599305      -3.40040533
C       -2.42965858      -2.58471312      -3.97956415
C       -1.61907359      -1.78004536      -3.17498442
O       -4.19354627      -4.11953733      -4.26683016
C       -4.69172882      -5.31245574      -3.94623737
N       -4.23732143      -6.13280820      -3.01890640
C       -5.08399675      -7.19636006      -3.06024827
C       -6.04763151      -7.04786053      -4.00928398
C       -7.07142537      -8.00827496      -4.23228926
O       -7.92767125      -7.87431868      -5.10105275
N       -6.98827770      -9.10505498      -3.36765757
C       -8.01485993     -10.12966143      -3.49791384
C       -9.22460668      -9.84996998      -2.62885907
C       -9.27799129     -10.32092662      -1.30804575
C      -10.39234961     -10.06391647      -0.50572493
C      -11.45812282      -9.32812457      -1.01826710
Br     -12.96954313      -8.98524629       0.06412479
C      -11.41768627      -8.84307957      -2.32324138
C      -10.30301717      -9.10134115      -3.12480992
C       -5.99060022      -9.30618217      -2.39374748
O       -5.97052768     -10.32264117      -1.69297701
N       -5.01971309      -8.31106940      -2.26056148
C       -3.96255394      -8.43724577      -1.27260529
N       -5.77033851      -5.85002320      -4.60874719
C       -6.49009368      -5.24545691      -5.70072405
H       -2.91208049      -2.60381352      -0.13007964
H       -4.34803207      -4.00865150      -1.54828896
H       -2.30105216      -2.57193836      -5.05852558
H       -0.86304363      -1.14949037      -3.63478271
H       -7.60416366     -11.11429569      -3.24280501
H       -8.33272685     -10.20879685      -4.54527138
H       -8.44968039     -10.89527451      -0.89462337
H      -10.41719105     -10.44194682       0.51296718
H      -12.24541258      -8.26565138      -2.72659837
H      -10.28362852      -8.71534817      -4.14290710
H       -3.96165644      -9.42363485      -0.80116783
H       -4.10974312      -7.67743640      -0.49897522
H       -2.99308625      -8.28428195      -1.75792206
H       -5.87989892      -4.46334615      -6.15879145
H       -7.41490651      -4.81765948      -5.30658221
H       -6.70608476      -6.00775825      -6.45279521
C       -1.79166620       1.79166620       1.79166620
C       -1.23438251       2.45206194       2.88525669
C       -2.03953089       3.26370831       3.68838468
C       -3.40166695       3.39931512       3.40573911
C       -3.94882828       2.74740216       2.29770541
C       -3.14531562       1.93708624       1.49170152
O       -4.24722888       4.22328949       4.10939540
C       -4.11615229       4.41307364       5.42119599
N       -3.49316969       3.62246997       6.27339637
C       -3.61684507       4.25021970       7.47354031
C       -4.31836577       5.41184982       7.37456043
C       -4.56098455       6.26844741       8.48255763
O       -5.20829453       7.30667377       8.38807437
N       -3.99254925       5.79742084       9.67102016
C       -4.16014591       6.62437963      10.85790965
C       -3.04640376       7.63985081      11.01718117
C       -1.87667982       7.31107140      11.71921244
C       -0.84918073       8.24595960      11.86685069
C       -0.98309166       9.51431284      11.30711000
Br       0.40368399      10.78257795      11.51177066
C       -2.13215782       9.85451009      10.59733931
C       -3.15927179       8.91892991      10.45096654
C       -3.28510490       4.58810963       9.81731533
O       -2.84428918       4.22859384      10.91326284
N       -3.11120376       3.80850747       8.67163274
C       -2.38434680       2.55265112       8.73540707
N       -4.67548826       5.49675388       6.05686675
C       -5.45630367       6.53920625       5.44076472
H       -0.17856630       2.34716722       3.12024012
H       -1.59058167       3.78479064       4.52960023
H       -5.00273269       2.86725751       2.06152590
H       -3.58186024       1.42961597       0.63584050
H       -4.20979371       5.99589681      11.75557384
H       -5.12349071       7.14820560      10.81509877
H       -1.75871924       6.32150096      12.15935807
H        0.04672454       7.97406299      12.41883225
H       -2.23989582      10.84183228      10.15593424
H       -4.05184391       9.19735765       9.89268222
H       -2.15301854       2.26811051       9.76533007
H       -1.44716822       2.65852566       8.18046086
H       -2.99051438       1.76000804       8.28476783
H       -5.83098603       6.19846352       4.47258697
H       -4.81597393       7.41451390       5.30866038
H       -6.30766673       6.77594249       6.08302900
C        1.79166620      -1.79166620       1.79166620
C        2.80024081      -2.55941741       1.21204292
C        3.61104692      -3.36136808       2.01920888
C        3.40045162      -3.40599201       3.40027755
C        2.39831868      -2.62035078       3.97526639
C        1.58773479      -1.81581834       3.17055024
O        4.19018991      -4.12126463       4.26845922
C        4.72282667      -5.29495319       3.93264207
N        4.30844972      -6.10374483       2.97684148
C        5.17826399      -7.14862482       3.01371626
C        6.11659803      -7.00036648       3.98781151
C        7.15696986      -7.94235934       4.21266040
O        7.99011415      -7.80920583       5.10372269
N        7.11861781      -9.02051690       3.32185554
C        8.16534516     -10.02446818       3.45262186
C        9.38759432      -9.69764352       2.61819790
C        9.48155723     -10.13671433       1.28869209
C       10.60748695      -9.83624582       0.51825824
C       11.64420446      -9.08864021       1.07166983
Br      13.17131995      -8.68694958       0.03239509
C       11.56321499      -8.63483166       2.38596057
C       10.43702044      -8.93654062       3.15560718
C        6.14803188      -9.22156917       2.32092881
O        6.16718003     -10.22180285       1.59716298
N        5.15771640      -8.24577415       2.18785343
C        4.12626882      -8.37293070       1.17320546
N        5.79834090      -5.82321247       4.60755553
C        6.47919188      -5.22791202       5.72917074
H        2.96764373      -2.53986130       0.13846861
H        4.40327795      -3.94430657       1.55738801
H        2.24517996      -2.63534475       5.05099139
H        0.80720868      -1.21321744       3.62689059
H        7.78330008     -11.01196330       3.16600099
H        8.46127790     -10.12053900       4.50497818
H        8.67622538     -10.71989497       0.84345791
H       10.66397442     -10.19004407      -0.50784780
H       12.36811830      -8.04835353       2.82119050
H       10.38581283      -8.57464733       4.18142364
H        4.15872313      -9.34796322       0.67977277
H        4.27329825      -7.59237178       0.42048472
H        3.14284730      -8.25306889       1.63937406
H        5.84097156      -4.47050908       6.19055588
H        7.40254405      -4.77042129       5.36618287
H        6.69569714      -6.00228379       6.46865728
C       -0.00445707       0.01189536      -1.78238275
H       -0.66409135       0.67374010      -2.43557963
H        0.65740317      -0.63156657      -2.45157240
C       -0.90989263      -0.90692880      -0.91072765
C        0.90977584       0.90977584      -0.90977584
C       -0.00465871       1.77757030       0.00794375
H       -0.66225468       2.44313916      -0.64384735
H        0.64322798       2.43503045       0.67728295
C       -1.78241447       0.00034974      -0.00472694
H       -2.45427497      -0.65498947       0.64260836
H       -2.43311707       0.67328779      -0.65473579
C       -0.91132561       0.90220522       0.91563759
C       -0.01476271      -0.02253852       1.78660255
H       -0.67934791      -0.69751639       2.42135241
H        0.63392994       0.61504881       2.47327442
C        0.01484550      -1.77751727      -0.01636693
H        0.67870853      -2.42144646      -0.68295456
H       -0.62264859      -2.45592969       0.64226336
C        1.78714474       0.01002794       0.00389507
H        2.44202412       0.67113390       0.66197326
H        2.45385902      -0.65136977      -0.64189061
C        0.91606151      -0.90478549       0.90901405
