117
Properties=species:S:1:pos:R:3 pbc="F F F"
C        0.00000000       0.00000000       0.00000000
C        0.88164030       0.88164030      -0.88164030
C        0.29639741       1.84207474      -1.70510440
C        1.10469601       2.64899509      -2.50994177
C        2.49660427       2.48650671      -2.50007541
C        3.07743291       1.52822883      -1.65757258
C        2.26700481       0.72403885      -0.85050216
C        3.31676519       3.36834655      -3.37380071
O        2.91245918       4.47845557      -3.70742666
N        4.52522261       2.85533889      -3.79620534
N        5.30957858       3.63011118      -4.64942588
C        6.53221887       3.14110144      -5.04297675
O        6.94966048       2.02355294      -4.76141345
C        7.34758208       4.09057611      -5.86653244
C        7.07115341       4.07080987      -7.35151567
C        7.74805413       5.41910408      -5.24161400
C        8.77037409       4.32619991      -5.36256994
H        9.05606589       3.81808684      -4.44562314
Br      10.22397858       4.60067636      -6.56952160
H       -0.78261158       1.97317182      -1.72665736
H        0.64586205       3.40222860      -3.14830028
H        4.15579443       1.40978299      -1.59316018
H        2.72499813      -0.01456885      -0.19674747
H        4.82110237       1.89086616      -3.66089683
H        4.97453911       4.56723093      -4.86526919
H        7.52673561       4.91552849      -7.87815952
H        5.99252616       4.12208297      -7.53581234
H        7.44634200       3.14235510      -7.79435744
H        7.39670335       5.65819259      -4.24304659
H        7.83404781       6.29016418      -5.88199489
C       -0.88164030      -0.88164030      -0.88164030
C       -0.84210898      -2.26719333      -0.73427424
C       -1.65065581      -3.07228637      -1.54069069
C       -2.48881585      -2.49205326      -2.50231727
C       -2.53312179      -1.09692614      -2.63318639
C       -1.72567176      -0.29292316      -1.82295090
C       -3.33163562      -3.38911742      -3.33815941
O       -3.67603578      -4.49391897      -2.92838665
N       -3.67143965      -2.91679948      -4.58852770
N       -4.42655325      -3.73990006      -5.42266234
C       -4.80132766      -3.26013976      -6.65482965
O       -4.44357825      -2.18012116      -7.11092747
C       -5.70204029      -4.17160628      -7.43104406
C       -5.00721181      -5.22563310      -8.26063405
C       -7.05372241      -4.52644469      -6.82860512
C       -6.98720846      -3.52588971      -7.94604578
H       -7.15232128      -2.48474524      -7.68270936
Br      -7.74859888      -4.01985326      -9.62572439
H       -0.19110585      -2.72959703       0.00348528
H       -1.62223871      -4.15397899      -1.42017322
H       -3.20627811      -0.61514792      -3.33731156
H       -1.76825644       0.78870700      -1.92762731
H       -3.28325402      -2.07689609      -5.01271525
H       -4.74344685      -4.62724161      -5.03635077
H       -5.69468411      -5.99112631      -8.63461320
H       -4.24980938      -5.74079487      -7.65981723
H       -4.50367113      -4.76337405      -9.11600936
H       -7.30582634      -4.14944227      -5.84267392
H       -7.47057681      -5.50761575      -7.02801432
C       -0.88164030       0.88164030       0.88164030
C       -1.90662328       0.30614534       1.63080793
C       -2.71132379       1.11410872       2.43820036
C       -2.49851269       2.49841738       2.48625632
C       -1.45574815       3.06648708       1.74099908
C       -0.64953625       2.25575364       0.93625592
C       -3.38033090       3.31857503       3.36000653
O       -3.92387877       2.82870857       4.34575407
N       -3.56308793       4.63210486       2.98157405
N       -4.41355132       5.42789148       3.74767283
C       -4.56974421       6.74796843       3.39858442
O       -4.07445585       7.25938199       2.40078903
C       -5.41300036       7.54729082       4.34439945
C       -6.90176852       7.49867672       4.09303371
C       -4.94543355       7.67652176       5.78681691
C       -4.77067323       8.83749719       4.85097352
H       -3.75954343       9.04722483       4.51300761
Br      -5.80780824      10.40627619       5.18009210
H       -2.08598963      -0.76557415       1.59680212
H       -3.50785162       0.66181293       3.02672637
H       -1.23631180       4.12959730       1.79282849
H        0.15981463       2.70306352       0.36392785
H       -3.24952014       5.02628242       2.09706280
H       -4.80707675       5.01075995       4.58920253
H       -7.48465622       7.91471796       4.92104944
H       -7.22884696       6.46170080       3.95987371
H       -7.15024839       8.05160262       3.18120354
H       -4.04687494       7.15336675       6.09770084
H       -5.69129828       7.74360879       6.57129981
C        0.88164030      -0.88164030       0.88164030
C        1.74887348      -1.80101688       0.29368620
C        2.55601297      -2.60577770       1.10184221
C        2.48633371      -2.49939721       2.49745548
C        1.62213252      -1.56147361       3.07962818
C        0.81770999      -0.75479976       2.26903607
C        3.36461784      -3.37696061       3.31733400
O        4.42303378      -3.80717560       2.86813203
N        2.90711534      -3.68935561       4.58029588
N        3.67767834      -4.54166535       5.36977194
C        3.24678876      -4.82602742       6.64348089
O        2.17861571      -4.44636337       7.10964779
C        4.19521170      -5.65836954       7.45110939
C        4.06573650      -7.15305666       7.27468579
C        5.58321650      -5.09866161       7.72689411
C        4.55453522      -5.08418220       8.82042652
H        4.12384794      -4.11993020       9.07599774
Br       4.84903135      -6.21459356      10.33055162
H        1.80714610      -1.89766882      -0.78759733
H        3.23662190      -3.31937792       0.64039110
H        1.57906106      -1.42300876       4.15666777
H        0.15256181      -0.02687980       2.72773514
H        1.97437738      -3.47291684       4.92557114
H        4.57563116      -4.83892779       4.99248028
H        4.90448603      -7.70500249       7.71093510
H        4.03449561      -7.40651620       6.20940967
H        3.13841879      -7.50988903       7.73474673
H        5.85982722      -4.14156087       7.29655444
H        6.41687773      -5.78841381       7.80091534
