125
Properties=species:S:1:pos:R:3 pbc="F F F"
C        0.00000000       0.00000000       0.00000000
C        0.88164030       0.88164030      -0.88164030
C        0.29639741       1.84207474      -1.70510440
C        1.10469601       2.64899509      -2.50994177
C        2.49660427       2.48650671      -2.50007541
C        3.07743291       1.52822883      -1.65757258
C        2.26700481       0.72403885      -0.85050216
C        3.31676519       3.36834655      -3.37380071
O        2.91245918       4.47845557      -3.70742666
N        4.52522261       2.85533889      -3.79620534
N        5.30957858       3.63011118      -4.64942588
C        6.53221887       3.14110144      -5.04297675
O        6.94966048       2.02355294      -4.76141345
C        7.34758208       4.09057611      -5.86653244
C        7.07115341       4.07080987      -7.35151567
C        7.74805413       5.41910408      -5.24161400
C        8.77037409       4.32619991      -5.36256994
H        9.05606589       3.81808684      -4.44562314
H       -0.78261158       1.97317182      -1.72665736
H        0.64586205       3.40222860      -3.14830028
H        4.15579443       1.40978299      -1.59316018
H        2.72499813      -0.01456885      -0.19674747
H        4.82110237       1.89086616      -3.66089683
H        4.97453911       4.56723093      -4.86526919
H        7.52673561       4.91552849      -7.87815952
H        5.99252616       4.12208297      -7.53581234
H        7.44634200       3.14235510      -7.79435744
H        7.39670335       5.65819259      -4.24304659
H        7.83404781       6.29016418      -5.88199489
C        9.86674590       4.53322200      -6.27290544
C       10.78495728       4.70660300      -7.03531142
Br      12.26962743       4.98694541      -8.26805741
C       -0.88164030      -0.88164030      -0.88164030
C       -0.76247544      -2.26873699      -0.81236412
C       -1.57108472      -3.07395006      -1.61859809
C       -2.48938526      -2.49134540      -2.50245574
C       -2.61290622      -1.09581606      -2.55451204
C       -1.80512577      -0.29194746      -1.74447259
C       -3.32901704      -3.38861699      -3.34127842
O       -3.59290215      -4.53029281      -2.97514644
N       -3.76054884      -2.87147809      -4.54473990
N       -4.51645729      -3.69029677      -5.38236159
C       -4.98225210      -3.16858724      -6.56545771
O       -4.70630157      -2.04849824      -6.97982706
C       -5.87561282      -4.08646606      -7.34261176
C       -5.17348794      -5.05665081      -8.26334021
C       -7.17222081      -4.54525331      -6.69129810
C       -7.21866619      -3.48607485      -7.75440290
H       -7.42281669      -2.47051939      -7.42643979
H       -0.04911849      -2.73247642      -0.13562268
H       -1.48019274      -4.15726430      -1.55893388
H       -3.34752039      -0.61570673      -3.19551047
H       -1.90927732       0.78971143      -1.78761086
H       -3.44008068      -1.99081420      -4.94197048
H       -4.76544781      -4.61241309      -5.02917833
H       -5.83981150      -5.83814619      -8.64246594
H       -4.35877751      -5.56010460      -7.73153936
H       -4.74198375      -4.52395135      -9.11711945
H       -7.38930596      -4.23410086      -5.67453571
H       -7.54800334      -5.53607859      -6.92212496
C       -7.84118260      -3.82337253      -9.00831820
C       -8.36254009      -4.10585934     -10.05847227
Br      -9.20553106      -4.56261661     -11.75648259
C       -0.88164030       0.88164030       0.88164030
C       -1.97903209       0.32661525       1.53792921
C       -2.78370977       1.13441904       2.34550406
C       -2.49779984       2.49909595       2.48629061
C       -1.38332436       3.04546164       1.83444832
C       -0.57744873       2.23466163       1.02943546
C       -3.38255758       3.31990066       3.35645421
O       -4.00920357       2.80892489       4.28021295
N       -3.46985682       4.66080792       3.04610209
N       -4.31840286       5.46144110       3.80927167
C       -4.38058140       6.80569385       3.53002181
O       -3.80013961       7.34164100       2.59284626
C       -5.23227800       7.59948361       4.47292902
C       -6.70416525       7.65216869       4.13714501
C       -4.84359545       7.62107571       5.94410105
C       -4.55032256       8.81982381       5.08899757
H       -3.51107355       8.98832744       4.82037488
H       -2.21513081      -0.72922651       1.43131330
H       -3.63715943       0.69769645       2.86153505
H       -1.10880676       4.08938797       1.96054287
H        0.28755727       2.66476682       0.52996720
H       -3.08366982       5.08427883       2.20491671
H       -4.78303925       5.02215439       4.60184559
H       -7.31064879       8.05518745       4.95458738
H       -7.07976315       6.64509945       3.92555887
H       -6.86781181       8.26831510       3.24692764
H       -3.99512645       7.02976965       6.27304643
H       -5.62928608       7.68823374       6.68868706
C       -5.27909508      10.03131300       5.36246526
C       -5.88944206      11.04593519       5.59149446
Br      -6.87632151      12.68649345       5.96181530
C        0.88164030      -0.88164030       0.88164030
C        1.60786873      -1.92532999       0.31037784
C        2.41530749      -2.73002296       1.11830242
C        2.48625745      -2.49833795       2.49859100
C        1.76408379      -1.43703168       3.06211885
C        0.95927537      -0.63090492       2.25136553
C        3.35912337      -3.38091361       3.31887548
O        4.32993301      -3.94545245       2.82295595
N        2.99705184      -3.53959103       4.64012396
N        3.76238221      -4.38961675       5.43711668
C        3.43011910      -4.52206432       6.76411365
O        2.44689009      -4.00529686       7.28243993
C        4.37528202      -5.36741630       7.56199232
C        4.10218169      -6.85295843       7.53833884
C        5.82588537      -4.91883857       7.66404828
C        4.90938848      -4.71422347       8.83553199
H        4.58882659      -3.69547302       9.03547627
H        1.55593100      -2.11935134      -0.75806474
H        2.98593299      -3.54125091       0.66920702
H        1.83428536      -1.20332651       4.12112573
H        0.40495450       0.19284012       2.69506237
H        2.12282555      -3.20779536       5.04224445
H        4.59217336      -4.80106136       5.01380451
H        4.92775031      -7.44173133       7.95094198
H        3.94951691      -7.19274506       6.50815950
H        3.19496192      -7.08045494       8.10763769
H        6.14191684      -4.03233967       7.12368602
H        6.60060786      -5.67487253       7.73072648
C        5.16349408      -5.48312350      10.02625576
C        5.37630751      -6.12707727      11.02348692
Br       5.72040884      -7.16829606      12.63592535
