146
Properties=species:S:1:pos:R:3 pbc="F F F"
C        1.79154432       1.79154432      -1.79154432
C        1.20630143       2.75197877      -2.61500843
C        2.01460004       3.55889911      -3.41984579
C        3.40650829       3.39641074      -3.40997944
C        3.98733693       2.43813285      -2.56747661
C        3.17690883       1.63394287      -1.76040618
C        4.22666921       4.27825058      -4.28370474
O        3.82236320       5.38835959      -4.61733068
N        5.43512664       3.76524291      -4.70610936
N        6.21948261       4.54001520      -5.55932990
C        7.44212289       4.05100546      -5.95288078
O        7.85956450       2.93345697      -5.67131747
C        8.25748611       5.00048013      -6.77643647
C        7.98105744       4.98071389      -8.26141969
C        8.65795815       6.32900811      -6.15151803
C        9.68027812       5.23610393      -6.27247396
H        9.96596991       4.72799087      -5.35552717
H        0.12729245       2.88307584      -2.63656138
H        1.55576607       4.31213263      -4.05820430
H        5.06569845       2.31968701      -2.50306421
H        3.63490215       0.89533517      -1.10665150
H        5.73100639       2.80077019      -4.57080085
H        5.88444314       5.47713495      -5.77517321
H        8.43663963       5.82543252      -8.78806354
H        6.90243019       5.03198700      -8.44571636
H        8.35624603       4.05225913      -8.70426146
H        8.30660737       6.56809661      -5.15295062
H        8.74395184       7.20006820      -6.79189891
C       10.77664992       5.44312602      -7.18280946
C       11.69486131       5.61650702      -7.94521545
Br      13.17953146       5.89684944      -9.17796144
C       -1.79154432      -1.79154432      -1.79154432
C       -1.24373207      -2.90753674      -2.42201981
C       -2.05224387      -3.71404026      -3.22706081
C       -3.40484661      -3.39699301      -3.41105885
C       -3.95070862      -2.28121862      -2.76101915
C       -3.14069186      -1.47736288      -1.95320316
C       -4.22679735      -4.28470617      -4.27712101
O       -3.93098322      -5.46621904      -4.43085121
N       -5.30602947      -3.69718780      -4.90326163
N       -6.08147646      -4.48078275      -5.75656850
C       -7.18094160      -3.91169390      -6.35337364
O       -7.48294358      -2.72794559      -6.25344978
C       -8.01230354      -4.86028302      -7.16181615
C       -7.57129020      -5.05900238      -8.59289845
C       -8.64448282      -6.04620547      -6.44779599
C       -9.50080846      -4.86988075      -6.81816680
H       -9.82085743      -4.22144254      -6.00718798
H       -0.19428576      -3.16012828      -2.29251563
H       -1.62359673      -4.58831520      -3.71419107
H       -5.00590478      -2.03576407      -2.84678082
H       -3.57207661      -0.61565665      -1.44915556
H       -5.49116172      -2.69636419      -4.91505152
H       -5.84528971      -5.46918092      -5.82228067
H       -8.06800626      -5.90711602      -9.07501342
H       -6.49395483      -5.25339538      -8.63278334
H       -7.77449216      -4.15773242      -9.18054204
H       -8.43997108      -6.19521608      -5.39246744
H       -8.76750286      -6.97595513      -6.99246096
C      -10.50581322      -5.06616354      -7.83060866
C      -11.34750470      -5.23055037      -8.67852871
Br     -12.70844864      -5.49634997     -10.04954372
C       -1.79154432       1.79154432       1.79154432
C       -3.17292745       1.60498953       1.79537165
C       -3.97796281       2.41150283       2.60387930
C       -3.40233739       3.41212153       3.39843955
C       -2.01078855       3.58259143       3.39956641
C       -1.20670393       2.77226312       2.59229083
C       -4.29916140       4.24647423       4.24298889
O       -5.38199535       3.81633551       4.62972262
N       -3.85328362       5.51851158       4.53468371
N       -4.67857051       6.35071084       5.28954636
C       -4.22377664       7.60575759       5.61647490
O       -3.16738701       8.08112387       5.21582807
C       -5.13170648       8.38177295       6.52092327
C       -6.22756838       9.16197581       5.83364684
C       -5.43194425       7.80833279       7.89820725
C       -4.46567260       8.95058871       7.77259471
H       -3.41332871       8.72082967       7.91532957
H       -3.63200222       0.83661413       1.17831333
H       -5.05617763       2.26046452       2.60946085
H       -1.53079070       4.31852053       4.03913844
H       -0.12771216       2.90787255       2.60130412
H       -3.03675596       5.95451277       4.11130870
H       -5.54553736       5.94922829       5.64198566
H       -6.98411621       9.53404986       6.53196962
H       -6.74617313       8.52596679       5.10799363
H       -5.80378875      10.01515132       5.29382655
H       -5.02034764       6.84070641       8.16660056
H       -6.40651184       7.99236029       8.33704683
C       -4.85802773      10.22249277       8.32206491
C       -5.18662515      11.28771243       8.78224620
Br      -5.71793938      13.01008252       9.52632043
C        1.79154432      -1.79154432       1.79154432
C        3.16390130      -1.55538367       1.85400366
C        3.96886648      -2.36202537       2.66245309
C        3.40284597      -3.41196181       3.39809069
C        2.01955365      -3.63261352       3.34077922
C        1.21535003      -2.82217387       2.53373399
C        4.29921584      -4.24443614       4.24497255
O        5.35042063      -3.79021197       4.68742088
N        3.89116354      -5.54183762       4.47347775
N        4.71925929      -6.37138235       5.22818607
C        4.30038950      -7.65346247       5.49215717
O        3.27779537      -8.15137282       5.03517075
C        5.20349070      -8.42952667       6.40138534
C        6.35204297      -9.14318522       5.72796284
C        5.43192627      -7.89772946       7.80882856
C        4.51441984      -9.06868959       7.60574658
H        3.44971225      -8.88269740       7.71707830
H        3.61582755      -0.74826019       1.28284193
H        5.03973838      -2.17237289       2.71399173
H        1.54469918      -4.40893786       3.93481263
H        0.14259442      -2.99699477       2.49729963
H        3.10744901      -5.99090023       4.00422819
H        5.55720859      -5.95230125       5.62724146
H        7.09625774      -9.51359580       6.44028216
H        6.87232073      -8.46201424       5.04579857
H        5.98042579      -9.99026377       5.14207706
H        4.97483096      -6.95640026       8.09642338
H        6.39619385      -8.06271147       8.27701363
C        4.93412324     -10.34529739       8.12316478
C        5.28562484     -11.41445642       8.55650252
Br       5.85397319     -13.14319614       9.25717300
C       -0.00445707       0.01189536      -1.78238275
H       -0.66409135       0.67374010      -2.43557963
H        0.65740317      -0.63156657      -2.45157240
C       -0.90989263      -0.90692880      -0.91072765
C        0.90977584       0.90977584      -0.90977584
C       -0.00465871       1.77757030       0.00794375
H       -0.66225468       2.44313916      -0.64384735
H        0.64322798       2.43503045       0.67728295
C       -1.78241447       0.00034974      -0.00472694
H       -2.45427497      -0.65498947       0.64260836
H       -2.43311707       0.67328779      -0.65473579
C       -0.91132561       0.90220522       0.91563759
C       -0.01476271      -0.02253852       1.78660255
H       -0.67934791      -0.69751639       2.42135241
H        0.63392994       0.61504881       2.47327442
C        0.01484550      -1.77751727      -0.01636693
H        0.67870853      -2.42144646      -0.68295456
H       -0.62264859      -2.45592969       0.64226336
C        1.78714474       0.01002794       0.00389507
H        2.44202412       0.67113390       0.66197326
H        2.45385902      -0.65136977      -0.64189061
C        0.91606151      -0.90478549       0.90901405
