117
Properties=species:S:1:pos:R:3 pbc="F F F"
C        0.00000000       0.00000000       0.00000000
C        0.91917684       0.91917684      -0.91917684
C        0.28277542       2.29851245      -1.09060086
H       -0.78648417       2.19714293      -1.31413581
C        0.96179146       3.10886122      -2.20855409
C        1.83109681       3.98344024      -1.39528055
C        2.84724602       4.83680990      -1.75663590
C        3.29195933       4.97036300      -3.17939121
N        3.48400013       5.59692795      -0.83050648
C        3.10080152       5.53071194       0.46436919
C        3.74778125       6.31557320       1.41053020
C        3.38991911       6.28812140       2.76368662
C        2.35937087       5.45573582       3.18588231
C        1.68915092       4.65503643       2.26760213
C        2.05964081       4.69241683       0.90872905
C        1.44764636       3.92229809      -0.07166292
O        0.41259149       3.04559415       0.15096094
H        1.00434542       0.38470906      -1.86906763
H        1.89095322       0.95849364      -0.41940798
H        0.22564615       3.71723869      -2.74501544
H        1.50798279       2.48420320      -2.92034579
H        2.46018386       5.30277815      -3.80820911
H        3.66497519       4.01128645      -3.55188336
H        4.09852904       5.70541913      -3.26788184
H        4.55394657       6.96904719       1.08452083
H        3.92248723       6.91932856       3.47030112
H        0.88268567       4.00100546       2.59128051
C        1.98613214       5.42245799       4.57627270
C        1.67354469       5.39458780       5.74072465
Br       1.16811724       5.34952407       7.62354497
C       -0.91917684      -0.91917684      -0.91917684
C       -1.90214432      -0.05771412      -1.71203029
H       -2.36100960       0.69343924      -1.05722420
C       -3.00708216      -0.90400042      -2.36812419
C       -2.48328332      -0.97929454      -3.74723974
C       -2.87966172      -1.73596011      -4.82507000
C       -3.98905221      -2.73476245      -4.71789889
N       -2.27820679      -1.59960113      -6.03362664
C       -1.28811844      -0.69181970      -6.18720613
C       -0.67862999      -0.54707542      -7.42711885
C        0.34915293       0.37878351      -7.64229032
C        0.78178632       1.18234895      -6.59335965
C        0.19590108       1.06525397      -5.33774027
C       -0.83750610       0.12921134      -5.13503383
C       -1.47182065      -0.05624377      -3.91354296
O       -1.18520048       0.64375636      -2.76578058
H       -1.42975146      -1.59772967      -0.23064098
H       -0.23125280      -1.47801949      -1.55958255
H       -3.95969608      -0.36331559      -2.36488861
H       -3.13920504      -1.87989858      -1.89342814
H       -4.91702931      -2.24115229      -4.41298953
H       -3.73427168      -3.50768378      -3.98618954
H       -4.16634280      -3.22462799      -5.68085922
H       -1.01462623      -1.17297409      -8.25087261
H        0.79794978       0.45945114      -8.62891560
H        0.53013614       1.69013629      -4.51268305
C        1.83857714       2.13674734      -6.80764190
C        2.72363945       2.93605599      -6.98710329
Br       4.15471035       4.22847047      -7.27727717
C       -0.91917684       0.91917684       0.91917684
C       -2.11451082       0.11965076       1.43772714
H       -2.56357067      -0.46163162       0.62285551
C       -3.18556749       1.02979457       2.06384471
C       -2.87042322       0.84436360       3.49503078
C       -3.32247637       1.50473000       4.61348545
C       -4.26287029       2.66473932       4.51410393
N       -2.93317799       1.12248141       5.85577517
C       -2.10479022       0.06358767       5.99876638
C       -1.71344395      -0.33218668       7.27156699
C       -0.85976969      -1.42252740       7.47711160
C       -0.38267747      -2.13809416       6.38464108
C       -0.75214002      -1.77091968       5.09536488
C       -1.61187424      -0.67138091       4.90283525
C       -2.02500506      -0.23437826       3.65098058
O       -1.66255244      -0.81352918       2.45820144
H       -1.22698271       1.75105402       0.28008537
H       -0.26862481       1.27935747       1.72087256
H       -4.18919403       0.64405305       1.85465320
H       -3.11592012       2.06802459       1.72858706
H       -5.19071347       2.36083414       4.01962351
H       -3.80187005       3.47931935       3.94695560
H       -4.51778606       3.04564579       5.50839816
H       -2.08510531       0.22414070       8.12922692
H       -0.57931590      -1.69818244       8.49038121
H       -0.38187505      -2.32581525       4.23635081
C        0.49582582      -3.26065838       6.58880163
C        1.23157233      -4.20080592       6.75978610
Br       2.42121220      -5.72094498       7.03625352
C        0.91917684      -0.91917684       0.91917684
C        0.16045185      -2.18097858       1.33045830
H       -0.85479787      -1.92307592       1.65651651
C        0.87962928      -2.94093795       2.45863955
C        1.53871196      -4.00156427       1.66954137
C        2.49128386      -4.92964020       2.01976776
C        3.09227484      -4.95935495       3.39008375
N        2.91966590      -5.86091466       1.13085400
C        2.38781423      -5.89111456      -0.11178452
C        2.82104614      -6.85027626      -1.01849814
C        2.30262741      -6.92830213      -2.31657565
C        1.32595622      -6.02585288      -2.72258471
C        0.86808711      -5.05126292      -1.84276481
C        1.39857107      -4.98396786      -0.53921035
C        1.00246966      -4.03991507       0.39922265
O        0.05112263      -3.07112948       0.18497259
H        1.18062668      -0.29771748       1.77977794
H        1.81075287      -1.13430433       0.32379763
H        0.15331676      -3.38975099       3.14483253
H        1.57596871      -2.31432737       3.02223569
H        2.31370191      -5.11393184       4.14353738
H        3.61257688      -4.01895569       3.59661243
H        3.81728676      -5.77484208       3.47970118
H        3.58427706      -7.55899767      -0.70480181
H        2.66988964      -7.69520462      -2.99357959
H        0.10491249      -4.34169709      -2.15419895
C        0.78838115      -6.10033701      -4.05640073
C        0.33816203      -6.16271746      -5.17347164
Br      -0.38980421      -6.26358139      -6.97968083
