157
Properties=species:S:1:pos:R:3 pbc="F F F"
C        0.00000000       0.00000000       0.00000000
C        0.88181566       0.88181566      -0.88181566
C        2.12238826       1.30729709      -0.41471042
C        2.92368673       2.12632444      -1.21660787
C        2.49677323       2.51862316      -2.49599159
C        1.24534932       2.07198536      -2.95005674
C        0.43919095       1.26033566      -2.14615186
C        3.33262940       3.44172153      -3.36327516
N        4.64097842       2.88244997      -3.71988436
C        5.73187077       3.17734713      -2.93231020
C        6.90179190       2.58086756      -3.12535934
F        7.97261912       2.82915441      -2.34956458
C        7.03858221       1.56033155      -4.17764286
O        8.01881973       0.82045337      -4.19050147
N        6.00580077       1.52674101      -5.10815569
C        6.14289965       0.59233560      -6.22351001
C        7.12100673       0.96603248      -7.33340010
C        8.16667898       1.89104251      -7.19123854
C        9.10317297       2.08624668      -8.21414648
C        9.00029151       1.36412990      -9.39842508
C        7.96382152       0.45418640      -9.57407609
C        7.03506025       0.25559174      -8.54727199
C        4.73530047       2.05626490      -4.84761040
O        3.74994982       1.80392732      -5.54360577
H        2.47244834       1.01213177       0.57130223
H        3.88234031       2.45508911      -0.82438606
H        0.88580664       2.35417903      -3.93834774
H       -0.52883397       0.93197213      -2.51582678
H        3.46907348       4.39559594      -2.83757537
H        2.79173154       3.68073407      -4.28716768
H        5.60480219       3.89421060      -2.12801442
H        5.16591314       0.42765563      -6.69209540
H        6.46286613      -0.37404050      -5.81294896
H        8.30456881       2.45845307      -6.27649150
H        9.91913831       2.78884572      -8.06377240
H        7.87868084      -0.11795223     -10.49418908
H        6.24647081      -0.48086316      -8.69555966
C        9.97942078       1.54786592     -10.43820724
C       10.79944155       1.70174484     -11.30902480
Br      12.12534577       1.95055403     -12.71706314
C       -0.88181566      -0.88181566      -0.88181566
C       -0.64403514      -2.25194982      -0.94841081
C       -1.44259910      -3.05724562      -1.76677433
C       -2.49195205      -2.50198317      -2.51745276
C       -2.71871343      -1.11901748      -2.42966050
C       -1.91573065      -0.31116612      -1.61878171
C       -3.34154245      -3.35219838      -3.44388527
N       -4.08954473      -4.40518457      -2.74858345
C       -3.53546624      -5.66191580      -2.64414607
C       -4.10216918      -6.60462089      -1.90122873
F       -3.56337894      -7.82919572      -1.75876345
C       -5.32884159      -6.30244159      -1.14527344
O       -5.70629224      -7.06442014      -0.25906220
N       -5.98412304      -5.13509592      -1.52147851
C       -7.25501929      -4.84141125      -0.86231472
C       -8.47166321      -5.65485709      -1.29391902
C       -8.40578264      -6.89408987      -1.94908752
C       -9.56302597      -7.64265916      -2.19788100
C      -10.80451473      -7.15620707      -1.80212469
C      -10.90169152      -5.92300623      -1.16738626
C       -9.74315294      -5.18176037      -0.91301066
C       -5.34215551      -4.09343472      -2.20358555
O       -5.82532555      -2.96441003      -2.30774732
H        0.16115615      -2.70163836      -0.37279567
H       -1.22900863      -4.12184283      -1.81096402
H       -3.52630130      -0.65684432      -2.99518779
H       -2.10554820       0.75808028      -1.57149702
H       -2.69337293      -3.80158567      -4.20728620
H       -4.05366780      -2.71888268      -3.98708281
H       -2.60444114      -5.85674571      -3.16584035
H       -7.50666586      -3.78309953      -0.99589878
H       -7.11743005      -4.99948253       0.21513800
H       -7.45858868      -7.32784249      -2.25308220
H       -9.47754429      -8.61256816      -2.68164397
H      -11.86711593      -5.53751804      -0.85028371
H       -9.83930158      -4.23053019      -0.39133554
C      -11.98988868      -7.93967642      -2.03592885
C      -12.98263935      -8.59583201      -2.23173982
Br     -14.58783324      -9.65678009      -2.54834961
C       -0.88181566       0.88181566       0.88181566
C       -0.31769365       1.58196865       1.94473347
C       -1.12761043       2.37829186       2.76071675
C       -2.50612076       2.48994571       2.51532152
C       -3.05283900       1.78099069       1.43356173
C       -2.24605584       0.97748992       0.62213271
C       -3.40826160       3.31435702       3.41500748
N       -3.06377842       4.74000137       3.43953295
C       -2.21554566       5.20663373       4.41934871
C       -1.75790415       6.45237393       4.39774072
F       -0.90414936       6.92137936       5.32580939
C       -2.13233692       7.35095271       3.29326699
O       -1.51415890       8.39765034       3.11796534
N       -3.20281379       6.92109933       2.51678435
C       -3.66945772       7.82330725       1.46598030
C       -4.48134313       9.04070783       1.89838836
C       -4.47601301       9.57832398       3.19462304
C       -5.14558960      10.77387139       3.48410514
C       -5.83825490      11.44359839       2.48099320
C       -5.87583193      10.92456665       1.19168544
C       -5.19914739       9.73472186       0.90405472
C       -3.60300235       5.57996938       2.45620404
O       -4.36269738       5.14728684       1.58749869
H        0.74765983       1.51143117       2.14950653
H       -0.66546231       2.90503023       3.59132294
H       -4.11697184       1.84846276       1.21289881
H       -2.69226131       0.43245492      -0.20575129
H       -3.36384404       2.90563672       4.43276405
H       -4.45233965       3.21310314       3.09419050
H       -1.90710338       4.51964862       5.20027520
H       -4.27616701       7.26757421       0.74192296
H       -2.78814067       8.18972423       0.92390968
H       -3.92810711       9.10714268       4.00426359
H       -5.09957186      11.18101925       4.49116531
H       -6.41045276      11.44382415       0.40064077
H       -5.21981114       9.35959275      -0.11823658
C       -6.50410296      12.68600767       2.77538331
C       -7.06175071      13.72652544       3.02193503
Br      -7.96341996      15.40895468       3.42058831
C        0.88181566      -0.88181566       0.88181566
C        2.20881289      -1.10858542       0.52699746
C        3.01222407      -1.92744511       1.32694986
C        2.49954308      -2.51822980       2.49361510
C        1.16066760      -2.27017499       2.83654883
C        0.35358837      -1.45887688       2.03321322
C        3.34268423      -3.44400215       3.35093971
N        4.52555841      -2.79321491       3.92453943
C        5.72388034      -2.86815768       3.24949009
C        6.78350808      -2.17569736       3.64881336
F        7.95502453      -2.20830340       2.98801017
C        6.67809211      -1.28338613       4.81507837
O        7.55268562      -0.44806370       5.02902525
N        5.55357792      -1.47740682       5.60971273
C        5.45215766      -0.67776925       6.82881836
C        6.34161024      -1.07588141       8.00294767
C        7.50223023      -1.85659761       7.89013219
C        8.33820948      -2.07250568       8.99285097
C        8.01862590      -1.51695406      10.22726652
C        6.86527524      -0.75420848      10.37260030
C        6.03693259      -0.53363256       9.26735882
C        4.39388760      -2.10651845       5.13876973
O        3.31490508      -2.05077433       5.73180349
H        2.62556882      -0.65805189      -0.37034284
H        4.04107494      -2.09881424       1.02192631
H        0.73271551      -2.70922928       3.73638862
H       -0.68199375      -1.28615717       2.31480152
H        3.65189672      -4.30540313       2.74494496
H        2.73757521      -3.85236424       4.16969384
H        5.77448400      -3.49033396       2.36220924
H        4.41703977      -0.67963684       7.18898757
H        5.69389667       0.36085448       6.56873239
H        7.80789217      -2.28883779       6.94278341
H        9.24582043      -2.65792413       8.86801186
H        6.61047753      -0.31220091      11.33223924
H        5.15239347       0.08842823       9.39720207
C        8.89340778      -1.71896523      11.35312094
C        9.62603760      -1.88814957      12.29602401
Br      10.81063806      -2.16170636      13.82061852
