178
Properties=species:S:1:pos:R:3 pbc="F F F"
C        1.79171969       1.79171969      -1.79171969
C        3.03229228       2.21720111      -1.32461445
C        3.83359076       3.03622847      -2.12651190
C        3.40667726       3.42852718      -3.40589561
C        2.15525334       2.98188938      -3.85996076
C        1.34909497       2.17023968      -3.05605589
C        4.24253342       4.35162556      -4.27317919
N        5.55088245       3.79235399      -4.62978838
C        6.64177480       4.08725116      -3.84221422
C        7.81169592       3.49077158      -4.03526337
F        8.88252314       3.73905843      -3.25946861
C        7.94848624       2.47023557      -5.08754688
O        8.92872376       1.73035739      -5.10040550
N        6.91570479       2.43664504      -6.01805971
C        7.05280368       1.50223962      -7.13341404
C        8.03091076       1.87593651      -8.24330412
C        9.07658300       2.80094653      -8.10114257
C       10.01307699       2.99615071      -9.12405050
C        9.91019554       2.27403393     -10.30832910
C        8.87372554       1.36409043     -10.48398012
C        7.94496427       1.16549576      -9.45717601
C        5.64520450       2.96616892      -5.75751443
O        4.65985385       2.71383134      -6.45350979
H        3.38235236       1.92203579      -0.33860179
H        4.79224434       3.36499313      -1.73429008
H        1.79571067       3.26408305      -4.84825176
H        0.38107005       1.84187615      -3.42573081
H        4.37897751       5.30549997      -3.74747940
H        3.70163557       4.59063810      -5.19707170
H        6.51470622       4.80411462      -3.03791844
H        6.07581716       1.33755965      -7.60199943
H        7.37277015       0.53586352      -6.72285298
H        9.21447283       3.36835709      -7.18639552
H       10.82904233       3.69874974      -8.97367642
H        8.78858486       0.79195179     -11.40409310
H        7.15637483       0.42904086      -9.60546368
C       10.88932481       2.45776995     -11.34811126
C       11.70934557       2.61164886     -12.21892882
Br      13.03524980       2.86045805     -13.62696716
C       -1.79171969      -1.79171969      -1.79171969
C       -1.21449478      -2.79740126      -2.56221180
C       -2.02034306      -3.59561244      -3.38037562
C       -3.41082950      -3.40253145      -3.42773910
C       -3.97279622      -2.38738025      -2.63692702
C       -3.16756379      -1.58272517      -1.82510158
C       -4.29634239      -4.22958295      -4.34141283
N       -4.27458617      -5.66384873      -4.03458992
C       -3.38844550      -6.47807465      -4.70472003
C       -3.22690118      -7.74988242      -4.36094727
F       -2.34523064      -8.55600916      -4.97981038
C       -3.98064256      -8.30230972      -3.22331642
O       -3.64888464      -9.37815228      -2.73244972
N       -5.05168469      -7.52829626      -2.79042859
C       -5.88507379      -8.07951346      -1.72387008
C       -6.85379389      -9.19700892      -2.09934858
C       -6.73513379      -9.99819409      -3.24534422
C       -7.58810297     -11.08877416      -3.45640107
C       -8.57870395     -11.38710891      -2.52674570
C       -8.73113491     -10.59950762      -1.39115356
C       -7.87226981      -9.51607336      -1.17929288
C       -5.15186582      -6.15721940      -3.05980263
O       -5.94069286      -5.41576889      -2.47073323
H       -0.14064218      -2.96504835      -2.53729941
H       -1.54435117      -4.36574613      -3.98143025
H       -5.04764397      -2.21352238      -2.64687913
H       -3.62376147      -0.79848924      -1.22642630
H       -3.98216645      -4.06897731      -5.38081312
H       -5.33280338      -3.87549301      -4.28104898
H       -2.80225958      -6.04575757      -5.50872213
H       -6.47431173      -7.27913753      -1.26192698
H       -5.21710267      -8.46938340      -0.94500058
H       -5.96153093      -9.82194207      -3.98575245
H       -7.45343805     -11.70860452      -4.33942592
H       -9.49922945     -10.82832601      -0.65707429
H       -7.99236911      -8.92813777      -0.27037250
C       -9.43750936     -12.52437795      -2.73331871
C      -10.15675889     -13.47684077      -2.90632360
Br     -11.31972455     -15.01689258      -3.18605788
C       -1.79171969       1.79171969       1.79171969
C       -1.22844378       2.48811002       2.85755404
C       -2.03840598       3.28441931       3.67350584
C       -3.41608341       3.39982858       3.42518807
C       -3.96193236       2.69463948       2.34053164
C       -3.15513087       1.89114943       1.52911025
C       -4.31839800       4.22424598       4.32469419
N       -3.97068242       5.64902904       4.35331336
C       -3.12364406       6.11143447       5.33616164
C       -2.66307931       7.35615902       5.31849254
F       -1.81039374       7.82104418       6.24961226
C       -3.03288028       8.25814894       4.21523947
O       -2.41188373       9.30381533       4.04378759
N       -4.10254712       7.83256714       3.43529528
C       -4.56467456       8.73827565       2.38550713
C       -5.37474585       9.95655006       2.81885548
C       -5.37117389      10.49115874       4.11633946
C       -6.03865687      11.68758076       4.40704056
C       -6.72745150      12.36122246       3.40388461
C       -6.76324332      11.84525671       2.11329607
C       -6.08864354      10.65451656       1.82447594
C       -4.50568928       6.49251014       3.37068843
O       -5.26436908       6.06359301       2.49923289
H       -0.16373262       2.41463524       3.06462209
H       -1.57696621       3.80816817       4.50639318
H       -5.02539320       2.76508273       2.11756955
H       -3.60067661       1.34906086       0.69893955
H       -4.27727903       3.81307567       5.34160218
H       -5.36196192       4.12614897       4.00123447
H       -2.81859617       5.42193665       6.11620645
H       -5.17098818       8.18562079       1.65876727
H       -3.68126215       9.10390284       1.84632166
H       -4.82623193      10.01684324       4.92615028
H       -5.99402961      12.09229525       5.41514363
H       -7.29483233      12.36757449       1.32222293
H       -6.10780780      10.28179715       0.80127444
C       -7.39110914      13.60448614       3.69961073
C       -7.94692242      14.64571948       3.94728136
Br      -8.84562548      16.32930572       4.34774382
C        1.79171969      -1.79171969       1.79171969
C        3.12955110      -1.98572193       1.45883481
C        3.93333407      -2.80450747       2.25848958
C        3.40993057      -3.42800971       3.40315977
C        2.06003539      -3.21272588       3.72434222
C        1.25280047      -2.40150325       2.92108683
C        4.25442784      -4.35403038       4.25887995
N        5.41290804      -3.69192061       4.86819618
C        6.62531417      -3.73032467       4.21560134
C        7.66314513      -3.02550367       4.64908207
F        8.84764489      -3.02238703       4.01101826
C        7.51759241      -2.15858754       5.83008874
O        8.37122797      -1.31088156       6.07737712
N        6.38195925      -2.38997571       6.59847458
C        6.24120693      -1.61666324       7.83058717
C        7.11545485      -2.02058071       9.01411582
C        8.29322074      -2.77631293       8.90913844
C        9.11180215      -2.99772153      10.02375451
C        8.75749022      -2.47292563      11.26214272
C        7.58671624      -1.73565819      11.39942166
C        6.77572521      -1.50938597      10.28252487
C        5.24423977      -3.03199528       6.09265280
O        4.15309344      -3.00885471       6.66524682
H        3.55462202      -1.50958822       0.57877970
H        4.97107619      -2.94988239       1.97056898
H        1.62349771      -3.67765071       4.60689706
H        0.20875651      -2.25444608       3.18547443
H        4.59224731      -5.19716033       3.64254924
H        3.64176435      -4.79010287       5.05747815
H        6.70534615      -4.33377503       3.31761810
H        5.19955157      -1.64566834       8.17015633
H        6.46739109      -0.56862595       7.59546961
H        8.62562789      -3.18377869       7.95981887
H       10.03303444      -3.56288939       9.90554466
H        7.30472332      -1.31768701      12.36221943
H        5.87673603      -0.90724204      10.40690131
C        9.61413751      -2.68014829      12.40092021
C       10.33157962      -2.85369728      13.35464637
Br      11.49162282      -3.13431130      14.89674089
C       -0.00445707       0.01189536      -1.78238275
H       -0.66409135       0.67374010      -2.43557963
H        0.65740317      -0.63156657      -2.45157240
C       -0.90989263      -0.90692880      -0.91072765
C        0.90977584       0.90977584      -0.90977584
C       -0.00465871       1.77757030       0.00794375
H       -0.66225468       2.44313916      -0.64384735
H        0.64322798       2.43503045       0.67728295
C       -1.78241447       0.00034974      -0.00472694
H       -2.45427497      -0.65498947       0.64260836
H       -2.43311707       0.67328779      -0.65473579
C       -0.91132561       0.90220522       0.91563759
C       -0.01476271      -0.02253852       1.78660255
H       -0.67934791      -0.69751639       2.42135241
H        0.63392994       0.61504881       2.47327442
C        0.01484550      -1.77751727      -0.01636693
H        0.67870853      -2.42144646      -0.68295456
H       -0.62264859      -2.45592969       0.64226336
C        1.78714474       0.01002794       0.00389507
H        2.44202412       0.67113390       0.66197326
H        2.45385902      -0.65136977      -0.64189061
C        0.91606151      -0.90478549       0.90901405
