170
Properties=species:S:1:pos:R:3 pbc="F F F"
C        1.79171969       1.79171969      -1.79171969
C        3.03229228       2.21720111      -1.32461445
C        3.83359076       3.03622847      -2.12651190
C        3.40667726       3.42852718      -3.40589561
C        2.15525334       2.98188938      -3.85996076
C        1.34909497       2.17023968      -3.05605589
C        4.24253342       4.35162556      -4.27317919
N        5.55088245       3.79235399      -4.62978838
C        6.64177480       4.08725116      -3.84221422
C        7.81169592       3.49077158      -4.03526337
F        8.88252314       3.73905843      -3.25946861
C        7.94848624       2.47023557      -5.08754688
O        8.92872376       1.73035739      -5.10040550
N        6.91570479       2.43664504      -6.01805971
C        7.05280368       1.50223962      -7.13341404
C        8.03091076       1.87593651      -8.24330412
C        9.07658300       2.80094653      -8.10114257
C       10.01307699       2.99615071      -9.12405050
C        9.91019554       2.27403393     -10.30832910
Br      11.19532236       2.51519114     -11.67306405
C        8.87372554       1.36409043     -10.48398012
C        7.94496427       1.16549576      -9.45717601
C        5.64520450       2.96616892      -5.75751443
O        4.65985385       2.71383134      -6.45350979
H        3.38235236       1.92203579      -0.33860179
H        4.79224434       3.36499313      -1.73429008
H        1.79571067       3.26408305      -4.84825176
H        0.38107005       1.84187615      -3.42573081
H        4.37897751       5.30549997      -3.74747940
H        3.70163557       4.59063810      -5.19707170
H        6.51470622       4.80411462      -3.03791844
H        6.07581716       1.33755965      -7.60199943
H        7.37277015       0.53586352      -6.72285298
H        9.21447283       3.36835709      -7.18639552
H       10.82904233       3.69874974      -8.97367642
H        8.78858486       0.79195179     -11.40409310
H        7.15637483       0.42904086      -9.60546368
C       -1.79171969      -1.79171969      -1.79171969
C       -1.21452531      -2.79757601      -2.56200652
C       -2.02037100      -3.59578879      -3.38017133
C       -3.41082623      -3.40253364      -3.42774018
C       -3.97276383      -2.38720703      -2.63713263
C       -3.16753233      -1.58255110      -1.82530711
C       -4.29632789      -4.22958880      -4.34142149
N       -4.27479746      -5.66381759      -4.03440977
C       -3.38867550      -6.47824530      -4.70431938
C       -3.22734070      -7.75002942      -4.36036075
F       -2.34569448      -8.55635073      -4.97900497
C       -3.98130123      -8.30221143      -3.22275604
O       -3.64974650      -9.37803334      -2.73170682
N       -5.05229910      -7.52800296      -2.79010748
C       -5.88589797      -8.07897377      -1.72358560
C       -6.85471429      -9.19639229      -2.09904481
C       -6.73600950      -9.99774145      -3.24492115
C       -7.58909272     -11.08823827      -3.45594720
C       -8.57985293     -11.38632400      -2.52638163
Br      -9.70721067     -12.87890140      -2.79746547
C       -8.73232899     -10.59855569      -1.39091141
C       -7.87335088      -9.51520533      -1.17907984
C       -5.15226748      -6.15694806      -3.05967230
O       -5.94107474      -5.41531889      -2.47080135
H       -0.14069770      -2.96535912      -2.53693312
H       -1.54440105      -4.36606214      -3.98106436
H       -5.04758773      -2.21321108      -2.64724667
H       -3.62370593      -0.79817838      -1.22679270
H       -3.98199634      -4.06915869      -5.38080184
H       -5.33275076      -3.87535664      -4.28123796
H       -2.80232927      -6.04610851      -5.50830150
H       -6.47509200      -7.27846154      -1.26182270
H       -5.21807842      -8.46882931      -0.94457893
H       -5.96228778      -9.82168578      -3.98525189
H       -7.45439369     -11.70820060      -4.33887420
H       -9.50054839     -10.82717927      -0.65690209
H       -7.99349179      -8.92713631      -0.27025128
C       -1.79171969       1.79171969       1.79171969
C       -1.22832452       2.48863653       2.85714679
C       -2.03828037       3.28494775       3.67310300
C       -3.41607521       3.39983152       3.42519332
C       -3.96204666       2.69411547       2.34094136
C       -3.15524774       1.89062392       1.52951889
C       -4.31836553       4.22424802       4.32472462
N       -3.97110132       5.64915256       4.35277094
C       -3.12389492       6.11214939       5.33519587
C       -2.66373830       7.35701694       5.31697563
F       -1.81090220       7.82247861       6.24766937
C       -3.03418735       8.25853062       4.21355073
O       -2.41358430       9.30434215       4.04156019
N       -4.10396855       7.83235105       3.43408994
C       -4.56672798       8.73757075       2.38415860
C       -5.37705297       9.95572334       2.81737507
C       -5.37323454      10.49075256       4.11468500
C       -6.04101027      11.68705272       4.40521521
C       -6.73034677      12.36014746       3.40206433
Br      -7.60181274      13.99179981       3.78996500
C       -6.76638886      11.84375299       2.11165423
C       -6.09149757      10.65313761       1.82300086
C       -4.50669834       6.49214302       3.37004648
O       -5.26552104       6.06269905       2.49897490
H       -0.16352280       2.41557277       3.06389437
H       -1.57674080       3.80911492       4.50567183
H       -5.02560221       2.76414296       2.11830030
H       -3.60088647       1.34812305       0.69966749
H       -4.27678501       3.81341978       5.34175208
H       -5.36200216       4.12570922       4.00163399
H       -2.81837208       5.42300240       6.11536480
H       -5.17309774       8.18448508       1.65779342
H       -3.68360811       9.10330909       1.84456945
H       -4.82787760      10.01687500       4.92447285
H       -5.99618806      12.09210748       5.41317295
H       -7.29840232      12.36564320       1.32058423
H       -6.11087200      10.28008128       0.79992611
C        1.79171969      -1.79171969       1.79171969
C        3.13146921      -1.97958360       1.46305502
C        3.93532259      -2.79835373       2.26265480
C        3.41002201      -3.42798452       3.40309352
C        2.05817344      -3.21884048       3.72008957
C        1.25090923      -2.40763256       2.91684876
C        4.25477837      -4.35404543       4.25851437
N        5.40856807      -3.68993752       4.87451923
C        6.62349416      -3.72148805       4.22625797
C        7.65712423      -3.01446459       4.66614206
F        8.84393806      -3.00465091       4.03246121
C        7.50404627      -2.15244436       5.84977806
O        8.35364042      -1.30252800       6.10331823
N        6.36646091      -2.39082717       6.61312146
C        6.21834052      -1.62257995       7.84753687
C        7.08972106      -2.02764296       9.03278736
C        8.27063988      -2.77865612       8.92937610
C        9.08593533      -3.00116319      10.04617968
C        8.72515054      -2.48223602      11.28517200
Br       9.84501877      -2.75559539      12.78296339
C        7.55117300      -1.74978071      11.42084238
C        6.74345830      -1.52237383      10.30180391
C        5.23297785      -3.03515016       6.10075984
O        4.13965972      -3.01812326       6.66941200
H        3.55801026      -1.49865488       0.58632480
H        4.97464276      -2.93885787       1.97802693
H        1.62011532      -3.68861177       4.59931839
H        0.20536747      -2.26538264       3.17792690
H        4.59796060      -5.19365411       3.64034216
H        3.64079866      -4.79530188       5.05324483
H        6.70904319      -4.32132899       3.32636710
H        5.17555992      -1.65665808       8.18315824
H        6.44152420      -0.57286077       7.61710169
H        8.60802719      -3.18139986       7.97979840
H       10.00967067      -3.56250726       9.92929057
H        7.26411109      -1.33639633      12.38412233
H        5.84180694      -0.92399528      10.42507716
C       -0.00445707       0.01189536      -1.78238275
H       -0.66409135       0.67374010      -2.43557963
H        0.65740317      -0.63156657      -2.45157240
C       -0.90989263      -0.90692880      -0.91072765
C        0.90977584       0.90977584      -0.90977584
C       -0.00465871       1.77757030       0.00794375
H       -0.66225468       2.44313916      -0.64384735
H        0.64322798       2.43503045       0.67728295
C       -1.78241447       0.00034974      -0.00472694
H       -2.45427497      -0.65498947       0.64260836
H       -2.43311707       0.67328779      -0.65473579
C       -0.91132561       0.90220522       0.91563759
C       -0.01476271      -0.02253852       1.78660255
H       -0.67934791      -0.69751639       2.42135241
H        0.63392994       0.61504881       2.47327442
C        0.01484550      -1.77751727      -0.01636693
H        0.67870853      -2.42144646      -0.68295456
H       -0.62264859      -2.45592969       0.64226336
C        1.78714474       0.01002794       0.00389507
H        2.44202412       0.67113390       0.66197326
H        2.45385902      -0.65136977      -0.64189061
C        0.91606151      -0.90478549       0.90901405
