186
Properties=species:S:1:pos:R:3 pbc="F F F"
C        1.79042533       1.79042533      -1.79042533
C        3.00755273       2.25465322      -1.30501799
C        3.81199591       3.06729727      -2.11037828
C        3.40195918       3.45679040      -3.40425956
C        2.19122098       2.91988806      -3.88673576
C        1.38314070       2.11097329      -3.08052525
C        4.33451116       4.33667941      -4.31318574
C        5.25295853       3.26487400      -5.03996688
O        4.81135807       2.32464767      -5.70782044
N        6.61372997       3.37109684      -4.92749112
C        7.26073863       4.63073179      -4.70134638
C        6.57397830       5.43497290      -3.64257957
C        7.32047147       6.34440868      -2.87483209
C        6.69982345       7.14995984      -1.92295779
C        5.32484700       7.07002180      -1.74104113
C        4.57177171       6.17977142      -2.50667417
C        5.18075475       5.33835120      -3.46294640
C        3.57074123       5.18751467      -5.38757616
C        4.08835007       5.36801033      -6.68661707
C        3.42603676       6.15964012      -7.63149688
C        2.23797811       6.79663711      -7.29207688
C        1.71067005       6.65816888      -6.01353789
C        2.37696623       5.87059610      -5.06901741
H        3.34904499       1.98597327      -0.30864699
H        4.77402280       3.38603378      -1.71019610
H        1.86689201       3.10875304      -4.90927389
H        0.44931785       1.72434213      -3.47933402
H        7.10490949       2.67035147      -5.46832783
H        7.26609618       5.18848879      -5.64398589
H        8.29467453       4.40758918      -4.41829399
H        8.39602423       6.43118259      -3.01603247
H        7.28757376       7.84493102      -1.32875799
H        4.83459941       7.70019111      -1.00329951
H        3.49839458       6.13743364      -2.33520999
H        5.01572289       4.89299749      -6.99743934
H        3.84790695       6.26938276      -8.62717279
H        0.78509643       7.15714579      -5.73789300
H        1.93923451       5.79010623      -4.07594715
C        1.55407978       7.60653475      -8.26673009
C        0.98131493       8.28482403      -9.08300216
Br       0.05520261       9.38156042     -10.40284505
C       -1.79042533      -1.79042533      -1.79042533
C       -1.96390893      -1.47108129      -3.13223372
C       -2.77648174      -2.27514800      -3.93804171
C       -3.45561028      -3.39572266      -3.41167620
C       -3.21005110      -3.72462078      -2.06317291
C       -2.40150420      -2.91848452      -1.25465052
C       -4.33269861      -4.31347415      -4.33820356
C       -3.28385911      -5.35328753      -4.92065277
O       -2.56201137      -6.06573368      -4.21608113
N       -3.15612026      -5.47766167      -6.27853600
C       -4.23745225      -5.18240794      -7.17295661
C       -4.92977517      -3.90420312      -6.81755248
C       -5.55628601      -3.15554709      -7.82787916
C       -6.25930435      -1.99305264      -7.52038410
C       -6.36067477      -1.57622150      -6.19901366
C       -5.75341685      -2.31865227      -5.18614818
C       -5.01818765      -3.48881387      -5.47505083
C       -5.47400483      -5.08473123      -3.58709600
C       -5.80790131      -6.41300422      -3.92207194
C       -6.85227007      -7.08631891      -3.27858479
C       -7.59181398      -6.44018119      -2.29469694
C       -7.30398085      -5.12353725      -1.95485872
C       -6.26300130      -4.45067636      -2.60290209
H       -1.46730204      -0.60806758      -3.56829563
H       -2.86378709      -2.01415043      -4.99231517
H       -3.63133165      -4.62851845      -1.62506883
H       -2.24367985      -3.19381738      -0.21549678
H       -2.49933641      -6.20116088      -6.54309149
H       -4.95123910      -6.01232306      -7.13500870
H       -3.80912626      -5.13202884      -8.17940260
H       -5.50032347      -3.47679277      -8.86612306
H       -6.73402024      -1.41683874      -8.31040379
H       -6.91263058      -0.67264578      -5.95281367
H       -5.84662122      -1.96156309      -4.16285390
H       -5.26062102      -6.95847146      -4.68706724
H       -7.07654276      -8.11343628      -3.55448345
H       -7.88070883      -4.60884800      -1.19057840
H       -6.07005507      -3.41865613      -2.31657670
C       -8.66272012      -7.13561210      -1.62901241
C       -9.55960401      -7.71803549      -1.07150162
Br     -11.00978941      -8.65976485      -0.17005382
C       -1.79042533       1.79042533       1.79042533
C       -2.97422342       2.31180367       1.28119685
C       -3.77842678       3.12440810       2.08683657
C       -3.40022473       3.45665226       3.40613215
C       -2.22511151       2.86299717       3.90973611
C       -1.41712277       2.05402153       3.10349494
C       -4.33371015       4.33738213       4.31328403
C       -5.31141473       3.27416786       4.97221682
O       -4.92424503       2.29781953       5.62176162
N       -6.66328647       3.43052720       4.81850426
C       -7.26017602       4.71834129       4.61429949
C       -6.51139008       5.53319556       3.60694513
C       -7.20070915       6.49251856       2.84648455
C       -6.52157299       7.30740776       1.94376033
C       -5.14457513       7.18655239       1.80478241
C       -4.44797468       6.24623789       2.56400474
C       -5.11679555       5.39497587       3.47028093
C       -3.57941365       5.12560659       5.44081182
C       -4.13489434       5.28064416       6.72743897
C       -3.47946818       6.01748249       7.72022310
C       -2.26008296       6.62435113       7.44225802
C       -1.69422544       6.51028376       6.17786762
C       -2.35350811       5.77762218       5.18544946
H       -3.29013831       2.08805391       0.26547303
H       -4.71513881       3.48891735       1.66619651
H       -1.92987464       3.00674403       4.94830027
H       -0.51078096       1.62270447       3.51950857
H       -7.19557784       2.72948925       5.31852169
H       -7.27932170       5.24447961       5.57476955
H       -8.29063984       4.54017100       4.28974686
H       -8.27700380       6.61130833       2.95492716
H       -7.06535588       8.04134131       1.35456557
H       -4.60881437       7.82363714       1.10563853
H       -3.37134881       6.17290908       2.42678032
H       -5.08755449       4.82760664       6.99099860
H       -3.93128333       6.10860436       8.70457480
H       -0.74377308       6.98615655       5.95020561
H       -1.88497118       5.71509135       4.20522537
C       -1.58351037       7.37771391       8.46612035
C       -1.01688083       8.00865524       9.32360504
Br      -0.10068879       9.02883401      10.71008527
C        1.79042533      -1.79042533       1.79042533
C        1.60669004      -1.79215164       3.16838226
C        2.41846399      -2.59496274       3.97624473
C        3.44924968      -3.38781484       3.42594462
C        3.56848384      -3.40780868       2.02155228
C        2.76054051      -2.60155054       1.21254819
C        4.32674923      -4.31588486       4.34174223
C        3.48000749      -5.65648991       4.42130200
O        3.11673919      -6.29710438       3.42998261
N        3.11984426      -6.14244910       5.65002457
C        3.89096800      -5.87314479       6.82870401
C        4.29471471      -4.43516688       6.92164918
C        4.49763934      -3.85643902       8.18563389
C        4.93117169      -2.53798580       8.30358359
C        5.18527339      -1.78957622       7.16106032
C        4.99951359      -2.35793193       5.90077179
C        4.54112184      -3.68537128       5.75555923
C        5.75177876      -4.62914582       3.76490748
C        6.33644526      -5.90486820       3.90166401
C        7.62351884      -6.17187148       3.42178345
C        8.35676063      -5.16434168       2.80558980
C        7.81961471      -3.88922369       2.67353842
C        6.53495686      -3.62312470       3.15849818
H        0.83173562      -1.18401194       3.62791768
H        2.22515605      -2.59653476       5.04856187
H        4.28283966      -4.06915629       1.53292299
H        2.88768073      -2.63142179       0.13389148
H        2.62784308      -7.02517542       5.59057028
H        4.78387391      -6.50714971       6.80754724
H        3.27211223      -6.16483141       7.68361406
H        4.31882941      -4.43382938       9.09058050
H        5.07779354      -2.09718327       9.28628595
H        5.52890513      -0.76186280       7.24732210
H        5.20156073      -1.74295384       5.02652365
H        5.80346552      -6.72351103       4.37918317
H        8.04014500      -7.16937094       3.53494656
H        8.38810384      -3.09403591       2.19799547
H        6.14883342      -2.61210826       3.04434621
C        9.67896766      -5.44139516       2.30698181
C       10.78631605      -5.67342746       1.88939761
Br      12.57680474      -6.04860405       1.21419928
C       -0.00445707       0.01189536      -1.78238275
H       -0.66409135       0.67374010      -2.43557963
H        0.65740317      -0.63156657      -2.45157240
C       -0.90989263      -0.90692880      -0.91072765
C        0.90977584       0.90977584      -0.90977584
C       -0.00465871       1.77757030       0.00794375
H       -0.66225468       2.44313916      -0.64384735
H        0.64322798       2.43503045       0.67728295
C       -1.78241447       0.00034974      -0.00472694
H       -2.45427497      -0.65498947       0.64260836
H       -2.43311707       0.67328779      -0.65473579
C       -0.91132561       0.90220522       0.91563759
C       -0.01476271      -0.02253852       1.78660255
H       -0.67934791      -0.69751639       2.42135241
H        0.63392994       0.61504881       2.47327442
C        0.01484550      -1.77751727      -0.01636693
H        0.67870853      -2.42144646      -0.68295456
H       -0.62264859      -2.45592969       0.64226336
C        1.78714474       0.01002794       0.00389507
H        2.44202412       0.67113390       0.66197326
H        2.45385902      -0.65136977      -0.64189061
C        0.91606151      -0.90478549       0.90901405
