178
Properties=species:S:1:pos:R:3 pbc="F F F"
O        6.66402513       4.90385496      -2.69779738
C        5.59505631       4.32250386      -2.73764144
N        5.05678702       3.56437446      -1.70069331
C        3.81986899       3.02654217      -2.04852081
C        3.01283182       2.23549278      -1.25473190
C        1.79904078       1.79904078      -1.79904078
C        1.40793955       2.15822319      -3.11054810
C        0.11853678       1.69557724      -3.72696919
C        2.26658887       2.96495230      -3.88168271
C        3.46794749       3.39588724      -3.34697662
C        4.57164586       4.22779450      -3.83473499
N        4.68783789       4.91798387      -4.98041332
N        3.72793574       4.65434072      -5.86479019
C        3.63989678       5.49331835      -6.84816502
C        4.42617036       6.79316267      -7.20664538
O        5.35698341       7.34203933      -6.65945556
N        3.81838928       7.26049096      -8.36609340
C        2.78321329       6.42768219      -8.76708017
C        1.96205872       6.58036214      -9.86346038
C        0.97095165       5.60764417     -10.07314400
C        0.81239866       4.50296575      -9.19539171
C       -0.24340788       3.45352111      -9.40513746
C        1.67187239       4.38081294      -8.09032521
C        2.63610183       5.35287699      -7.90445563
H        5.53368464       3.45503869      -0.82505267
H        3.31606096       1.96864138      -0.25065328
H       -0.04915568       2.16314291      -4.70373163
H       -0.73304073       1.96567557      -3.09477107
H        0.13806306       0.61175700      -3.87845283
H        2.01157373       3.26199106      -4.89324619
H        4.12936317       8.10411505      -8.81566727
H        2.08013903       7.42330616     -10.53381207
H       -0.22327449       2.70037015      -8.60971851
H       -0.08092064       2.93191814     -10.35361000
H       -1.24040813       3.90541511      -9.39703499
H        1.60810546       3.55980628      -7.38201388
C        0.11925440       5.78081710     -11.22128289
C       -0.59404205       5.92584942     -12.18284922
Br      -1.74738209       6.16035443     -13.73762064
O       -3.20978466      -4.05892724      -6.99696558
C       -3.10294404      -3.71964847      -5.83260910
N       -2.13152161      -2.85338263      -5.33695055
C       -2.27143013      -2.65867704      -3.96482479
C       -1.48397752      -1.85717091      -3.16190806
C       -1.79904078      -1.79904078      -1.79904078
C       -2.88653221      -2.52791448      -1.26226415
C       -3.24179022      -2.49626347       0.19697047
C       -3.65855014      -3.33318586      -2.12148789
C       -3.34796570      -3.39425497      -3.46859068
C       -3.91647282      -4.09290335      -4.62479919
N       -5.02249012      -4.84854492      -4.71520004
N       -5.57151096      -5.13833663      -3.53721905
C       -6.77601250      -5.61239097      -3.59297669
C       -7.74965479      -5.89703943      -4.77928419
O       -7.61135457      -5.77112948      -5.97599425
N       -8.91248586      -6.35878470      -4.17370308
C       -8.78182349      -6.40335144      -2.79280073
C       -9.72846911      -6.80313694      -1.87427518
C       -9.37358524      -6.76211932      -0.51603527
C       -8.08960325      -6.32783789      -0.09331498
C       -7.69396959      -6.27744512       1.35616402
C       -7.15074195      -5.93139824      -1.06087036
C       -7.52586324      -5.97766440      -2.38990681
H       -1.44162707      -2.43751184      -5.93463709
H       -0.65668595      -1.29856953      -3.58010014
H       -4.17220115      -3.04032259       0.39480488
H       -3.39665394      -1.46748114       0.53672918
H       -2.45133405      -2.96691750       0.78997866
H       -4.49862279      -3.91323430      -1.75495389
H       -9.71920759      -6.61301109      -4.71692682
H      -10.70943926      -7.13347028      -2.19434771
H       -6.67638272      -5.89093575       1.48050430
H       -7.71876748      -7.28017360       1.79433358
H       -8.36222257      -5.61315616       1.91333677
H       -6.15054831      -5.59208216      -0.80729516
C      -10.37291678      -7.18086760       0.43242999
C      -11.20985695      -7.53156929       1.22676964
Br     -12.56311841      -8.09862425       2.51114968
O       -7.04593010       3.49234042       3.72740696
C       -5.86833941       3.30619962       3.48066258
N       -5.37868970       2.37040322       2.57276186
C       -3.98742829       2.39712345       2.51038022
C       -3.18331834       1.60942454       1.71031362
C       -1.79904078       1.79904078       1.79904078
C       -1.24178635       2.76487082       2.67005367
C        0.23903813       2.98304416       2.79707719
C       -2.10342307       3.54222064       3.46758018
C       -3.47195581       3.35531581       3.38353973
C       -4.63560976       3.96781017       4.03075543
N       -4.70137080       5.00856818       4.87629610
N       -3.51307048       5.41776879       5.31622738
C       -3.50960643       6.57709943       5.89467428
C       -4.62954258       7.62975583       6.16668001
O       -5.81659008       7.61565492       5.92623330
N       -3.97251937       8.68675691       6.78569736
C       -2.61819616       8.42376644       6.93601306
C       -1.66348379       9.24228324       7.50011421
C       -0.34282917       8.76635201       7.54255864
C        0.00714904       7.49034469       7.02756047
C        1.41568952       6.96623694       7.06470326
C       -0.99584227       6.68386266       6.46330561
C       -2.28628794       7.17667721       6.43046930
H       -5.99164683       1.77783073       2.04429843
H       -3.61662192       0.87596229       1.04277141
H        0.46397465       3.84071189       3.44098161
H        0.68584532       3.19295986       1.82029135
H        0.71531986       2.10301253       3.24058022
H       -1.72227545       4.29136887       4.15316666
H       -4.46604016       9.51611471       7.06699062
H       -1.92786732      10.21701486       7.89237508
H        1.48806004       5.97836606       6.59650815
H        1.75834773       6.86376788       8.09918736
H        2.08795553       7.63373534       6.51626216
H       -0.79822185       5.69707273       6.05463103
C        0.64431711       9.63269285       8.13297865
C        1.47105211      10.35825330       8.62745540
Br       2.80781269      11.53142319       9.42698248
O        3.71640300      -3.50264854       7.04662594
C        3.46743527      -3.31859048       5.86917586
N        2.55987131      -2.38247863       5.37950485
C        2.49688860      -2.40976192       3.98828145
C        1.70886533      -1.61078124       3.18340992
C        1.79904078      -1.79904078       1.79904078
C        2.66846298      -2.76636092       1.24188694
C        2.77817307      -3.00075286      -0.23784272
C        3.45020790      -3.55849436       2.10452162
C        3.36137890      -3.37607528       3.47335717
C        4.00873463      -3.98843846       4.63700226
N        4.99624787      -4.89620166       4.69378555
N        5.29613316      -5.43659233       3.51434116
C        6.41388002      -6.09072613       3.47677399
C        7.52021412      -6.36181366       4.54395064
O        7.60110395      -6.04669621       5.71067813
N        8.48958103      -7.09061984       3.86477276
C        8.12720902      -7.30789682       2.54286981
C        8.84255329      -7.98473450       1.57859345
C        8.27720110      -8.07816532       0.29637340
C        7.01552077      -7.50162305      -0.00638769
C        6.39662318      -7.59207038      -1.37344287
C        6.31541499      -6.82240129       1.00519427
C        6.89494316      -6.74157477       2.25691652
H        2.04429496      -1.77783399       5.99164705
H        1.04967958      -0.86949097       3.61618507
H        3.57653072      -3.71373435      -0.47254622
H        3.01866856      -2.07036311      -0.76162577
H        1.84194143      -3.41320714      -0.62687568
H        4.12738258      -4.31552248       1.72390593
H        9.33087469      -7.39538938       4.32288142
H        9.80621346      -8.42419976       1.80684403
H        5.43756763      -7.06401994      -1.41477340
H        6.20641851      -8.63684579      -1.63865680
H        7.05062992      -7.13315880      -2.12174676
H        5.34526895      -6.36157767       0.84307900
C        9.03632878      -8.78646687      -0.70144126
C        9.67209821      -9.37966941      -1.53711104
Br      10.70008362     -10.33882775      -2.88831838
C       -0.00445707       0.01189536      -1.78238275
H       -0.66409135       0.67374010      -2.43557963
H        0.65740317      -0.63156657      -2.45157240
C       -0.90989263      -0.90692880      -0.91072765
C        0.90977584       0.90977584      -0.90977584
C       -0.00465871       1.77757030       0.00794375
H       -0.66225468       2.44313916      -0.64384735
H        0.64322798       2.43503045       0.67728295
C       -1.78241447       0.00034974      -0.00472694
H       -2.45427497      -0.65498947       0.64260836
H       -2.43311707       0.67328779      -0.65473579
C       -0.91132561       0.90220522       0.91563759
C       -0.01476271      -0.02253852       1.78660255
H       -0.67934791      -0.69751639       2.42135241
H        0.63392994       0.61504881       2.47327442
C        0.01484550      -1.77751727      -0.01636693
H        0.67870853      -2.42144646      -0.68295456
H       -0.62264859      -2.45592969       0.64226336
C        1.78714474       0.01002794       0.00389507
H        2.44202412       0.67113390       0.66197326
H        2.45385902      -0.65136977      -0.64189061
C        0.91606151      -0.90478549       0.90901405
