182
Properties=species:S:1:pos:R:3 pbc="F F F"
C        1.79143779       1.79143779      -1.79143779
C        1.20818006       2.74612776      -2.61962246
C        2.01711351       3.55314962      -3.42763160
C        3.41432823       3.41571330      -3.41645167
C        3.97829484       2.44537173      -2.57242345
C        3.17400357       1.63616428      -1.76335136
C        4.25204016       4.25983346      -4.26665004
C        4.00090429       5.24479811      -5.20271598
C        5.25650889       5.67682722      -5.69498859
C        6.20811000       4.93285953      -5.03018726
C        7.69240633       4.89206588      -5.08507328
C        8.18417588       3.94255130      -6.11739389
C        8.48750998       2.59873996      -6.09979056
C        8.90346142       2.26839906      -7.41252555
C        8.82947693       3.42724537      -8.16180106
O        8.39800331       4.45130021      -7.36416241
C        9.10012447       3.76438448      -9.55794554
C        8.90118888       5.06652173     -10.04448566
C        9.15598949       5.38478232     -11.38269346
C        9.61440335       4.39819155     -12.25059172
C        9.81957043       3.09975519     -11.79288462
C        9.56297682       2.78628188     -10.45302538
O        5.60370952       4.07772532      -4.15776527
H        0.12901933       2.87227330      -2.64672479
H        1.53744060       4.29097210      -4.06603630
H        5.05749748       2.30813941      -2.53840629
H        3.63808930       0.89294076      -1.12070494
H        3.02876219       5.60709899      -5.50547196
H        5.44815925       6.42890230      -6.44738502
H        8.09103131       4.60474009      -4.10452148
H        8.07873611       5.89709652      -5.29316294
H        8.40810610       1.93940561      -5.24645981
H        9.21147254       1.29514446      -7.76738824
H        8.54147603       5.85097274      -9.38152050
H        8.99215855       6.40075007     -11.73127641
H       10.17666777       2.32427019     -12.46513410
H        9.72988250       1.76486472     -10.12032935
C        9.87708102       4.72200038     -13.62890528
C       10.09707356       4.99319027     -14.78324290
Br      10.45278289       5.43168139     -16.64970918
C       -1.79143779      -1.79143779      -1.79143779
C       -3.17705013      -1.68632256      -1.71055759
C       -3.98406052      -2.49524329      -2.51859093
C       -3.41663959      -3.41535603      -3.41449759
C       -2.01646325      -3.50238691      -3.47723986
C       -1.20570844      -2.69637872      -2.67143204
C       -4.26672635      -4.25968837      -4.25210893
C       -5.63136549      -4.42983143      -4.38722147
C       -5.82789811      -5.42413400      -5.37629260
C       -4.57076342      -5.80633568      -5.79405769
C       -4.08385246      -6.79562951      -6.79006352
C       -3.90710539      -8.14484584      -6.19216984
C       -2.85367912      -8.77038517      -5.56197622
C       -3.31302078     -10.06255196      -5.20881329
C       -4.62270211     -10.15593088      -5.63989037
O       -4.97984510      -8.98446573      -6.24915510
C       -5.65065516     -11.19309120      -5.57870812
C       -6.93632676     -10.97588568      -6.09998383
C       -7.91973035     -11.96871513      -6.03501978
C       -7.62425615     -13.19397758      -5.44495289
C       -6.35731511     -13.43409122      -4.92080391
C       -5.37681849     -12.43738241      -4.98808319
O       -3.62143499      -5.09741926      -5.12034586
H       -3.64097757      -0.98195761      -1.02508224
H       -5.06347680      -2.39459577      -2.43637643
H       -1.54038726      -4.20561565      -4.15804027
H       -0.12500636      -2.78600525      -2.74072338
H       -6.39928111      -3.90775101      -3.83430102
H       -6.76631290      -5.82254304      -5.73559063
H       -3.13094707      -6.45574120      -7.21360462
H       -4.79113141      -6.85158021      -7.62628394
H       -1.87922658      -8.34133270      -5.37341224
H       -2.75287844     -10.82894386      -4.69218294
H       -7.18679553     -10.02367723      -6.56349651
H       -8.90611758     -11.77206226      -6.44600520
H       -6.11985999     -14.38817531      -4.45803676
H       -4.39562394     -12.64891825      -4.57053440
C       -8.63425652     -14.21803912      -5.37569104
C       -9.48013184     -15.07569066      -5.31768423
Br     -10.84784068     -16.46244066      -5.22389213
C       -1.79143779       1.79143779       1.79143779
C       -3.17067143       1.60391594       1.79934291
C       -3.97773816       2.41289122       2.60726536
C       -3.41668356       3.41523265       3.41457700
C       -2.02287709       3.58446896       3.38874398
C       -1.21212698       2.77873970       2.58265253
C       -4.26712901       4.25884066       4.25255399
C       -5.62971971       4.35970670       4.45899198
C       -5.82923067       5.39857086       5.40052318
C       -4.57561109       5.87510297       5.72044273
C       -4.09328923       6.94783138       6.62842487
C       -4.03119846       8.26680781       5.94611480
C       -3.05405425       8.91192850       5.22005775
C       -3.60874543      10.15285738       4.82278322
C       -4.89533949      10.19795221       5.32523166
O       -5.14717595       9.04665978       6.01963021
C       -5.98510376      11.17015485       5.26719587
C       -7.22418043      10.91243772       5.87557812
C       -8.26711515      11.84273903       5.81361108
C       -8.07886717      13.04532343       5.13899602
C       -6.85998529      13.32464674       4.52757822
C       -5.81958627      12.39045362       4.59224419
O       -3.62511131       5.18180804       5.03228075
H       -3.62960567       0.83496223       1.18344952
H       -5.05214732       2.24696560       2.59533607
H       -1.55203040       4.35269492       3.99931786
H       -0.13650626       2.93298334       2.58224539
H       -6.39502989       3.76322733       3.98307593
H       -6.76802857       5.76427380       5.79214421
H       -3.09950448       6.68793481       7.01285359
H       -4.75448773       7.01366006       7.50084777
H       -2.06790955       8.52789029       4.99817168
H       -3.12523440      10.91738008       4.23139077
H       -7.39097049       9.97697585       6.40602293
H       -9.21534326      11.61576499       6.29307678
H       -6.70623498      14.26129039       3.99854669
H       -4.87778976      12.63157722       4.10570960
C       -9.15041277      14.00499951       5.07257439
C      -10.04783221      14.80872823       5.01694628
Br     -11.49888355      16.10828960       4.92700032
C        1.79143779      -1.79143779       1.79143779
C        1.23285982      -2.47068729       2.87038317
C        2.04192221      -3.27791835       3.67805418
C        3.41451435      -3.41532851       3.41665035
C        3.95388026      -2.71975835       2.32245141
C        3.14945837      -1.91147452       1.51258632
C        4.25359926      -4.25724130       4.26768310
C        4.03244813      -5.01235810       5.40361216
C        5.27339436      -5.59308967       5.76184068
C        6.18619030      -5.16246625       4.82250024
C        7.64028904      -5.39958592       4.62967052
C        8.46722455      -4.40927750       5.36761902
C        8.97309292      -3.16943874       5.04350884
C        9.68121500      -2.71900890       6.18416213
C        9.56775661      -3.70649796       7.14426879
O        8.83236493      -4.74291637       6.63818464
C       10.04416140      -3.86095726       8.51733583
C        9.73622355      -5.00529433       9.27067839
C       10.18917422      -5.14772409      10.58656695
C       10.95814781      -4.14148478      11.16355403
C       11.27706923      -2.99730331      10.43783770
C       10.82129711      -2.85942845       9.12155852
O        5.57047604      -4.35831964       3.91040443
H        0.17306018      -2.38095105       3.09400618
H        1.58192677      -3.79757526       4.51494697
H        5.01416943      -2.79987847       2.08999528
H        3.59441413      -1.38427187       0.67304900
H        3.09137720      -5.12760857       5.92234736
H        5.48296410      -6.23734786       6.60413461
H        7.88375463      -5.35537594       3.56116231
H        7.89308776      -6.41349673       4.96241108
H        8.83790591      -2.65274297       4.10332265
H       10.20378607      -1.77906473       6.29115444
H        9.13464184      -5.80193740       8.83739003
H        9.93460391      -6.04389281      11.14568832
H       11.87646567      -2.20734816      10.88225823
H       11.08277337      -1.95602651       8.57627670
C       11.42554648      -4.28436659      12.51807360
C       11.81699287      -4.40403011      13.65248374
Br      12.44992858      -4.59751590      15.48672899
C       -0.00445707       0.01189536      -1.78238275
H       -0.66409135       0.67374010      -2.43557963
H        0.65740317      -0.63156657      -2.45157240
C       -0.90989263      -0.90692880      -0.91072765
C        0.90977584       0.90977584      -0.90977584
C       -0.00465871       1.77757030       0.00794375
H       -0.66225468       2.44313916      -0.64384735
H        0.64322798       2.43503045       0.67728295
C       -1.78241447       0.00034974      -0.00472694
H       -2.45427497      -0.65498947       0.64260836
H       -2.43311707       0.67328779      -0.65473579
C       -0.91132561       0.90220522       0.91563759
C       -0.01476271      -0.02253852       1.78660255
H       -0.67934791      -0.69751639       2.42135241
H        0.63392994       0.61504881       2.47327442
C        0.01484550      -1.77751727      -0.01636693
H        0.67870853      -2.42144646      -0.68295456
H       -0.62264859      -2.45592969       0.64226336
C        1.78714474       0.01002794       0.00389507
H        2.44202412       0.67113390       0.66197326
H        2.45385902      -0.65136977      -0.64189061
C        0.91606151      -0.90478549       0.90901405
