153
Properties=species:S:1:pos:R:3 pbc="F F F"
C        0.00000000       0.00000000       0.00000000
C        0.88153376       0.88153376      -0.88153376
C        0.29827603       1.83622373      -1.70971844
C        1.10720949       2.64324559      -2.51772758
C        2.50442421       2.50580928      -2.50654765
C        3.06839082       1.53546770      -1.66251942
C        2.26409955       0.72626025      -0.85344734
C        3.34213614       3.34992943      -3.35674602
C        3.09100027       4.33489409      -4.29281196
C        4.34660486       4.76692320      -4.78508457
C        5.29820597       4.02295551      -4.12028323
C        6.78250230       3.98216186      -4.17516925
C        7.27427186       3.03264727      -5.20748987
C        7.57760595       1.68883594      -5.18988654
C        7.99355740       1.35849504      -6.50262152
C        7.91957291       2.51734135      -7.25189703
O        7.48809929       3.54139619      -6.45425839
C        8.19022044       2.85448045      -8.64804151
C        7.99128486       4.15661770      -9.13458164
C        8.24608546       4.47487829     -10.47278944
C        8.70449933       3.48828752     -11.34068769
Br       9.04919150       3.91319754     -13.14934510
C        8.90966641       2.18985117     -10.88298060
C        8.65307280       1.87637785      -9.54312136
O        4.69380550       3.16782129      -3.24786125
H       -0.78088469       1.96236927      -1.73682077
H        0.62753658       3.38106807      -3.15613228
H        4.14759346       1.39823539      -1.62850227
H        2.72818528      -0.01696326      -0.21080091
H        2.11885816       4.69719496      -4.59556794
H        4.53825523       5.51899828      -5.53748099
H        7.18112728       3.69483607      -3.19461746
H        7.16883209       4.98719250      -4.38325891
H        7.49820208       1.02950159      -4.33655579
H        8.30156851       0.38524044      -6.85748422
H        7.63157201       4.94106871      -8.47161647
H        8.08225453       5.49084605     -10.82137239
H        9.26676374       1.41436617     -11.55523007
H        8.81997848       0.85496070      -9.21042533
C       -0.88153376      -0.88153376      -0.88153376
C       -2.25004025      -0.63828011      -0.95589784
C       -3.05715337      -1.44728854      -1.76374075
C       -2.50680381      -2.50524135      -2.50473598
C       -1.12370338      -2.73007289      -2.41260168
C       -0.31297685      -1.92453350      -1.60629679
C       -3.35746757      -3.34832969      -3.34301433
C       -4.71353797      -3.40210545      -3.60306288
C       -4.91849470      -4.47114056      -4.50897737
C       -3.67430052      -5.01174057      -4.75540361
C       -3.20143086      -6.14103028      -5.59737228
C       -3.22358385      -7.43115108      -4.85967407
C       -2.30533973      -8.08414398      -4.06684472
C       -2.92821489      -9.28328634      -3.64317272
C       -4.19393976      -9.29711649      -4.19775504
O       -4.36785616      -8.16714361      -4.94875410
C       -5.32562477     -10.22058679      -4.14653085
C       -6.52667294      -9.93859338      -4.81721788
C       -7.60998442     -10.82198276      -4.76178601
C       -7.50092340     -12.00140141      -4.03114974
Br      -8.96183255     -13.19730157      -3.95260002
C       -6.32108008     -12.30400809      -3.35741001
C       -5.24002358     -11.41674509      -3.41580335
O       -2.72404005      -4.32918151      -4.05626648
H       -2.70057151       0.17435558      -0.39208942
H       -4.12309953      -1.23721190      -1.80442549
H       -0.66146697      -3.54224241      -2.97062173
H        0.75417239      -2.12247213      -1.55372319
H       -5.47154010      -2.75508337      -3.18499760
H       -5.85523195      -4.81451491      -4.92498764
H       -2.18258156      -5.93861359      -5.94938566
H       -3.82860825      -6.21690449      -6.49377075
H       -1.31361623      -7.73163920      -3.81900403
H       -2.50232631     -10.04102981      -3.00093705
H       -6.63159762      -9.02056130      -5.39209827
H       -8.52727408     -10.57707495      -5.29012394
H       -6.22916496     -13.22274695      -2.78444809
H       -4.33004660     -11.67521337      -2.88010453
C       -0.88153376       0.88153376       0.88153376
C       -1.89831999       0.30701194       1.63888627
C       -2.70608055       1.11604932       2.44605279
C       -2.50670297       2.50454994       2.50552823
C       -1.47451768       3.05981617       1.73204410
C       -0.66484730       2.25545977       0.92350007
C       -3.35757454       3.34321167       3.34802538
C       -4.44432579       3.10639549       4.16798503
C       -4.83572964       4.35628478       4.70659820
C       -3.96402585       5.28991555       4.18750331
C       -3.83239478       6.76143257       4.34600607
C       -4.65618978       7.50267727       3.35554195
C       -4.41628613       7.96131281       2.07872949
C       -5.61052624       8.59174743       1.65240029
C       -6.51624191       8.48215167       2.69041770
O       -5.92612450       7.82359088       3.73403848
C       -7.90238586       8.90037673       2.88997982
C       -8.58480963       8.61425777       4.08341679
C       -9.91331551       9.01118308       4.26925460
C      -10.57440900       9.70139870       3.25766684
Br     -12.36919144      10.23880913       3.50373356
C       -9.92008285       9.99718137       2.06523395
C       -8.59083306       9.59768491       1.88405404
O       -3.06150248       4.67884821       3.36913735
H       -2.07322969      -0.76528848       1.61036414
H       -3.49377668       0.64339281       3.02756744
H       -1.29127288       4.13254561       1.75051262
H        0.12587547       2.71286314       0.33503526
H       -4.90987063       2.14877809       4.35297235
H       -5.65606037       4.55753758       5.38113655
H       -2.78050870       7.05249664       4.23757547
H       -4.12908075       7.04811004       5.36209271
H       -3.49595952       7.84519167       1.52310827
H       -5.78741132       9.06156406       0.69531779
H       -8.08523598       8.07390402       4.88511719
H      -10.41630659       8.77518486       5.20298151
H      -10.43033940      10.53516114       1.27085945
H       -8.10233164       9.83956297       0.94346989
C        0.88153376      -0.88153376       0.88153376
C        0.60293663      -1.00123074       2.24005084
C        1.41196423      -1.80902095       3.04719748
C        2.50518409      -2.50478056       2.50681649
C        2.76527226      -2.36742111       1.13368457
C        1.95985387      -1.56097014       0.32298313
C        3.34792807      -3.34327688       3.35760663
C        3.37172228      -3.63999340       4.70699063
C        4.45990772      -4.52159897       4.91710594
C        5.04127287      -4.71778072       3.68239112
C        6.20649880      -5.51466442       3.21867019
C        7.47414433      -4.74268677       3.29757790
C        8.12946097      -3.90654863       2.42031883
C        9.29855876      -3.46784306       3.08827214
C        9.29325239      -4.05740771       4.33815118
O        8.18061411      -4.84381635       4.45932341
C       10.18343243      -4.01283041       5.49647957
C        9.88759487      -4.72471592       6.67017341
C       10.73893652      -4.67566851       7.77914816
C       11.89977433      -3.91008108       7.72361914
Br      13.05234532      -3.84001768       9.21937114
C       12.21553963      -3.19517801       6.57178053
C       11.36034910      -3.24735489       5.46486802
O        4.36560714      -4.01108597       2.73279493
H       -0.23740112      -0.47295063       2.68275583
H        1.17388667      -1.88559607       4.10525419
H        3.60530242      -2.88959916       0.67942954
H        2.18549974      -1.47281520      -0.73629202
H        2.69253493      -3.26148358       5.45760255
H        4.78901790      -4.95433283       5.85138377
H        6.04221425      -5.84315778       2.18520877
H        6.29041561      -6.42601493       3.82285295
H        7.79749545      -3.64054956       1.42621445
H       10.04926273      -2.79322428       2.70180616
H        8.98364921      -5.32736324       6.73324475
H       10.48393385      -5.23627119       8.67426792
H       13.11988800      -2.59479614       6.52167585
H       11.62849242      -2.67923092       4.57764117
