177
Properties=species:S:1:pos:R:3 pbc="F F F"
C        0.00000000       0.00000000       0.00000000
C        0.88145352       0.88145352      -0.88145352
C        2.14931054       1.25269020      -0.44140773
C        2.95777700       2.05448215      -1.25172140
C        2.51740368       2.47473727      -2.51785857
C        1.22017776       2.11573690      -2.92524731
C        0.40932115       1.31502407      -2.11717632
C        3.38770202       3.36534170      -3.39967162
O        4.78708116       3.28570367      -3.12485468
C        5.40860151       2.10940667      -3.64047304
C        5.14352002       1.94147460      -5.13996634
C        3.63622717       2.03516445      -5.35388487
O        3.11138339       3.23465963      -4.79767319
C        5.86540831       3.03588453      -5.93182250
O        7.28169334       2.87016984      -5.89050345
C        7.72177848       1.57705289      -6.30687002
O        7.08577946       0.53417206      -5.56142492
C        5.66608867       0.59407444      -5.62977969
C        7.69975160       1.35326194      -7.81639222
C        7.72831330       2.43439847      -8.71333034
C        7.72891166       2.22108998     -10.09431598
C        7.72649406       0.92111301     -10.59279617
C        7.73301836      -0.16660442      -9.72383701
C        7.72843046       0.04967843      -8.34340011
H        2.51716341       0.92921012       0.52897679
H        3.94092553       2.34944059      -0.88809149
H        0.83370054       2.45968411      -3.88366566
H       -0.58519849       1.04108015      -2.45945909
H        3.10026668       4.39130201      -3.14124377
H        6.48033732       2.19046822      -3.42817678
H        5.04824738       1.24027647      -3.07724275
H        3.39394121       2.03807298      -6.42280828
H        3.11747942       1.17061312      -4.92251184
H        5.64544174       4.03251951      -5.53371853
H        5.53732648       3.04446668      -6.97810443
H        8.78079845       1.52942753      -6.02735393
H        5.34022514       0.38736639      -6.65650869
H        5.27506811      -0.22271651      -5.01189910
H        7.74859116       3.45674333      -8.33872102
H        7.73747365       3.07386137     -10.76779327
H        7.74722378      -1.18380236     -10.10725845
H        7.74732752      -0.80955613      -7.67428155
C        7.72608874       0.70009047     -12.01573288
C        7.72574929       0.51498409     -13.20744237
Br       7.72520041       0.21568272     -15.13433583
C       -0.88145352      -0.88145352      -0.88145352
C       -0.35025429      -1.46385090      -2.02930328
C       -1.15629395      -2.27554377      -2.83214283
C       -2.49334061      -2.53153414      -2.48512477
C       -3.01649333      -1.90436173      -1.34030691
C       -2.21353685      -1.09180092      -0.53618376
C       -3.38392569      -3.40181779      -3.36697186
O       -2.67649513      -4.32434707      -4.19679731
C       -2.18989267      -5.46973595      -3.49885260
C       -3.30923986      -6.18242802      -2.73329306
C       -4.01392837      -5.13922899      -1.87211914
O       -4.45180237      -4.03588365      -2.65603019
C       -4.29690558      -6.82323704      -3.71297272
O       -3.71058395      -7.92004334      -4.41173935
C       -3.14139722      -8.91000127      -3.55430291
O       -2.19023632      -8.34366958      -2.64747054
C       -2.73749929      -7.29416133      -1.85828217
C       -4.15733136      -9.82962742      -2.88244697
C       -5.44193011     -10.01273211      -3.42137989
C       -6.35970743     -10.87246481      -2.81214538
C       -5.99228599     -11.57838470      -1.66973256
C       -4.71358719     -11.43984604      -1.13681771
C       -3.79922143     -10.57645588      -1.74583169
H        0.68513652      -1.29096057      -2.31157268
H       -0.73156449      -2.71204183      -3.73485128
H       -4.06063465      -2.04972815      -1.06668751
H       -2.63790742      -0.62769722       0.35026390
H       -3.86961143      -2.70400825      -4.05919277
H       -1.72797911      -6.12904630      -4.24195691
H       -1.38573215      -5.15873057      -2.82130387
H       -4.89933601      -5.56725936      -1.38822710
H       -3.36317707      -4.78287648      -1.06455084
H       -4.63869709      -6.10587362      -4.46710907
H       -5.19639891      -7.17186105      -3.19163763
H       -2.55938550      -9.56311952      -4.21507490
H       -3.49839837      -7.70325929      -1.18244256
H       -1.93209080      -6.91178651      -1.22037339
H       -5.73802104      -9.48137217      -4.32466231
H       -7.35189763     -10.98692459      -3.24030607
H       -4.41586652     -12.00054193      -0.25427143
H       -2.79769012     -10.48726917      -1.32709365
C       -6.93756940     -12.46386574      -1.04047695
C       -7.72924425     -13.20545611      -0.51347538
Br      -9.00931553     -14.40454501       0.33864158
C       -0.88145352       0.88145352       0.88145352
C       -0.63748038       0.95556903       2.25035906
C       -1.44107772       1.76753864       3.05536419
C       -2.48129968       2.53013725       2.49856259
C       -2.72986259       2.41181562       1.11948376
C       -1.92885850       1.60039387       0.31226917
C       -3.37392508       3.40435704       3.37443322
O       -2.78071193       3.80720475       4.60972283
C       -1.82608878       4.85885685       4.47353558
C       -2.41744437       6.06708277       3.74043380
C       -3.02713682       5.56103161       2.43710806
O       -3.95572253       4.51052022       2.67747345
C       -3.48698063       6.74070666       4.60542806
O       -2.91802562       7.37455181       5.74978920
C       -1.87298420       8.29599800       5.43671920
O       -0.84278984       7.68461556       4.65397104
C       -1.33455341       7.10290005       3.45248934
C       -2.35087547       9.63550204       4.88302824
C       -3.65582705      10.09835021       5.12186485
C       -4.07972638      11.33537459       4.62921665
C       -3.19290374      12.13463384       3.91286567
C       -1.88446866      11.71288180       3.69290048
C       -1.46449521      10.47371419       4.18329960
H        0.16972417       0.38481210       2.70230880
H       -1.24809770       1.80390061       4.12645929
H       -3.55462411       2.95830141       0.66412480
H       -2.13364876       1.53480097      -0.75310898
H       -4.21673574       2.76154161       3.65453510
H       -1.49183664       5.12472581       5.48241988
H       -0.94387117       4.47310814       3.94878728
H       -3.56845149       6.36345873       1.92291225
H       -2.25247023       5.21669452       1.74143962
H       -4.22406692       6.01711670       4.97049617
H       -4.04802142       7.48460512       4.02727105
H       -1.40343986       8.53633435       6.39780571
H       -1.70319471       7.89343354       2.78747197
H       -0.48177916       6.64205818       2.94041336
H       -4.35557124       9.49265985       5.69582442
H       -5.09816798      11.66539994       4.81556037
H       -1.18298944      12.33970184       3.14798859
H       -0.43451971      10.16130877       4.01622446
C       -3.62892565      13.40914515       3.40384129
C       -3.99409399      14.47654837       2.97753338
Br      -4.58454032      16.20244911       2.28822953
C        0.88145352      -0.88145352       0.88145352
C        2.21868385      -1.07805598       0.54666864
C        3.02625114      -1.88011780       1.35761162
C        2.51275950      -2.47523830       2.52200172
C        1.15096549      -2.29007690       2.82011958
C        0.34093169      -1.48955693       2.01103292
C        3.38412764      -3.36686905       3.40171866
O        4.78681373      -3.12240044       3.28842533
C        5.22480323      -1.95373121       3.97994677
C        4.79864620      -1.97501253       5.45130222
C        3.29662501      -2.23730972       5.49134177
O        2.96073540      -3.41515617       4.76782463
C        5.55389467      -3.07301952       6.20620115
O        6.94132712      -2.76691645       6.33412306
C        7.19685796      -1.48960315       6.91924029
O        6.52763233      -0.43923303       6.21451108
C        5.12279397      -0.64389059       6.12325823
C        7.00418347      -1.43306914       8.43215314
C        7.06180319      -2.59667666       9.21756226
C        6.90514054      -2.53445668      10.60472040
C        6.71413376      -1.30222834      11.22404115
C        6.68779878      -0.13171510      10.47073707
C        6.84078148      -0.19732495       9.08340258
H        2.64210415      -0.61762137      -0.34232879
H        4.06613628      -2.03716758       1.07515374
H        0.71248806      -2.77128235       3.69327989
H       -0.70586316      -1.35210305       2.26910086
H        3.23547220      -4.38204317       3.01529709
H        6.31456409      -1.90685333       3.87756491
H        4.82932019      -1.06811826       3.46832815
H        2.95330010      -2.37898503       6.52253734
H        2.73210100      -1.38584173       5.09266165
H        5.48241075      -4.03756099       5.69170805
H        5.12849563      -3.22620827       7.20519369
H        8.26669869      -1.30939069       6.76149053
H        4.67827976      -0.58174612       7.12407434
H        4.70792521       0.19284820       5.54917368
H        7.22850639      -3.56583244       8.74971669
H        6.94007643      -3.44997081      11.18908105
H        6.55491177       0.83475064      10.95051875
H        6.83189319       0.72678350       8.50694325
C        6.55156797      -1.23699644      12.65334768
C        6.41541913      -1.18236472      13.85039190
Br       6.19527796      -1.09402985      15.78591116
