190
Properties=species:S:1:pos:R:3 pbc="F F F"
C        1.79135755       1.79135755      -1.79135755
C        3.05921456       2.16259422      -1.35131175
C        3.86768103       2.96438618      -2.16162542
C        3.42730770       3.38464130      -3.42776260
C        2.13008178       3.02564093      -3.83515133
C        1.31922517       2.22492809      -3.02708034
C        4.29760604       4.27524573      -4.30957564
O        5.69698519       4.19560769      -4.03475870
C        6.31850554       3.01931069      -4.55037706
C        6.05342404       2.85137862      -6.04987036
C        4.54613120       2.94506848      -6.26378890
O        4.02128742       4.14456365      -5.70757721
C        6.77531234       3.94578855      -6.84172652
O        8.19159737       3.78007386      -6.80040748
C        8.63168250       2.48695692      -7.21677405
O        7.99568348       1.44407609      -6.47132894
C        6.57599269       1.50397847      -6.53968371
C        8.60965562       2.26316596      -8.72629624
C        8.63821732       3.34430250      -9.62323437
C        8.63881568       3.13099400     -11.00422001
C        8.63639809       1.83101704     -11.50270020
Br       8.63586609       1.54091885     -13.37034388
C        8.64292238       0.74329960     -10.63374103
C        8.63833448       0.95958245      -9.25330413
H        3.42706743       1.83911414      -0.38092723
H        4.85082955       3.25934461      -1.79799551
H        1.74360456       3.36958814      -4.79356969
H        0.32470553       1.95098418      -3.36936311
H        4.01017070       5.30120603      -4.05114779
H        7.39024134       3.10037225      -4.33808081
H        5.95815140       2.15018049      -3.98714678
H        4.30384523       2.94797701      -7.33271230
H        4.02738345       2.08051714      -5.83241587
H        6.55534576       4.94242354      -6.44362256
H        6.44723050       3.95437071      -7.88800845
H        9.69070248       2.43933156      -6.93725795
H        6.25012916       1.29727041      -7.56641272
H        6.18497213       0.68718751      -5.92180312
H        8.65849519       4.36664735      -9.24862504
H        8.64737767       3.98376539     -11.67769730
H        8.65712781      -0.27389833     -11.01716248
H        8.65723154       0.10034789      -8.58418558
C       -1.79135755      -1.79135755      -1.79135755
C       -1.23128637      -2.47344722      -2.86838695
C       -2.03786132      -3.28492205      -3.67090925
C       -3.40608151      -3.44079301      -3.39283707
C       -3.95519330      -2.71474498      -2.32093576
C       -3.15171146      -1.90214674      -1.51737541
C       -4.29592087      -4.31061015      -4.27589640
O       -3.59975843      -5.32221219      -5.00538097
C       -3.22624825      -6.44866364      -4.21328140
C       -4.43010462      -7.04639982      -3.47816858
C       -5.11790490      -5.91278630      -2.72429737
O       -5.44045932      -4.83637060      -3.59659835
C       -5.39681106      -7.68796609      -4.47805026
O       -4.83970761      -8.85807822      -5.07429287
C       -4.38358671      -9.82461114      -4.12721562
O       -3.45361678      -9.25963000      -3.19784173
C       -3.97998272      -8.13333212      -2.50634004
C       -5.49173441     -10.64033749      -3.46704593
C       -6.75166696     -10.78135703      -4.07273020
C       -7.75467031     -11.54698251      -3.47237688
C       -7.49861781     -12.20116505      -2.27033246
Br      -8.85467545     -13.23602036      -1.45643301
C       -6.24696657     -12.10457944      -1.66841701
C       -5.24714939     -11.33509765      -2.26897403
H       -0.17253297      -2.37883314      -3.09574270
H       -1.58912198      -3.80030488      -4.51874282
H       -5.02046255      -2.78195973      -2.10434010
H       -3.59744240      -1.36028304      -0.68732738
H       -4.69649545      -3.62982417      -5.03620491
H       -2.76350355      -7.17836008      -4.88683077
H       -2.44518390      -6.14370054      -3.50659424
H       -6.05470108      -6.25789030      -2.27194316
H       -4.49445775      -5.54568653      -1.90017217
H       -5.64920143      -6.99988986      -5.29230057
H       -6.34491527      -7.95081811      -3.99387628
H       -3.80558284     -10.55003742      -4.71167173
H       -4.80271354      -8.45495769      -1.85614107
H       -3.19096126      -7.75977782      -1.84322368
H       -6.96133572     -10.29048371      -5.02194816
H       -8.72545117     -11.62976925      -3.95361995
H       -6.03627986     -12.62605851      -0.73805358
H       -4.26807409     -11.27861813      -1.79507279
C       -1.79135755       1.79135755       1.79135755
C       -1.23253624       2.46832056       2.87226375
C       -2.03908318       3.27980801       3.67480144
C       -3.40593156       3.44083405       3.39294599
C       -3.95394699       2.71986274       2.31706431
C       -3.15049339       1.90726484       1.51347538
C       -4.29581222       4.31067256       4.27594263
O       -3.59878237       5.31780399       5.01076522
C       -3.21927431       6.44554848       4.22337049
C       -4.41894772       7.04934816       3.48637714
C       -5.10792024       5.92025643       2.72681190
O       -5.43656807       4.84213696       3.59472325
C       -5.38677391       7.69081398       4.48523953
O       -4.82788891       8.85730601       5.08688379
C       -4.36578486       9.82535880       4.14426981
O       -3.43467653       9.26037223       3.21603976
C       -3.96238889       8.13789529       2.51937069
C       -5.46930437      10.64661245       3.48320101
C       -6.73068218      10.78968689       4.08538512
C       -7.72940235      11.56032378       3.48430357
C       -7.46754151      12.21745280       2.28512101
Br      -8.81780217      13.25909046       1.47023619
C       -6.21431792      12.11882602       1.68681907
C       -5.21879658      11.34434222       2.28808228
H       -0.17480130       2.36967908       3.10262842
H       -1.59139514       3.79113074       4.52564379
H       -5.01831703       2.79109196       2.09735339
H       -3.59531152       1.36939649       0.68034481
H       -4.70089247       3.62877332       5.03285873
H       -2.75636532       7.17168333       4.90064575
H       -2.43695565       6.14034835       3.51817467
H       -6.04221147       6.26970610       2.27261697
H       -4.48304333       5.55378110       1.90349203
H       -5.64386322       7.00099164       5.29653700
H       -6.33253030       7.95814732       3.99893205
H       -3.78735195      10.54714066       4.73279937
H       -4.78206920       8.46412737       1.86761572
H       -3.17246405       7.76394358       1.85755514
H       -6.94485720      10.29650999       5.03240040
H       -8.70142324      11.64464858       3.96276854
H       -5.99908843      12.64254629       0.75875723
H       -4.23842215      11.28627544       1.81706742
C        1.79135755      -1.79135755       1.79135755
C        2.89754794      -2.43400352       1.24156908
C        3.70730154      -3.23569717       2.05069392
C        3.43359371      -3.38566482       3.42045306
C        2.29141820      -2.75467099       3.94478485
C        1.47956209      -1.95329375       3.13837777
C        4.30290694      -4.27407518       4.30544529
O        5.63112679      -4.47581659       3.82040819
C        6.49612533      -3.36084595       4.03122201
C        6.51873137      -2.93367733       5.50226432
C        5.07289294      -2.73603169       5.94606393
O        4.29178303      -3.89605071       5.68559454
C        7.19838344      -4.00839219       6.35605178
O        8.59554089      -4.09517184       6.08136598
C        9.28375947      -2.84977281       6.20188119
O        8.68824367      -1.83320892       5.38963591
C        7.30778808      -1.63880306       5.67306373
C        9.55305558      -2.40828621       7.63777604
C        9.57699411      -3.33618599       8.69257408
C        9.84482671      -2.92748685      10.00171614
C       10.11688764      -1.58776674      10.26546095
Br      10.47803294      -1.03323439      12.03586149
C       10.13288224      -0.65538436       9.23169643
C        9.86082307      -1.06621965       7.92417835
H        3.13709350      -2.32290126       0.18711404
H        4.56022454      -3.74419593       1.60374921
H        2.02869912      -2.88427315       4.99379011
H        0.60884932      -1.46643394       3.56976956
H        3.82932695      -5.26227004       4.27092754
H        7.49238123      -3.65404346       3.68226971
H        6.17509976      -2.53422970       3.38614920
H        5.01920685      -2.54188970       7.02343800
H        4.61940660      -1.86759883       5.45331102
H        6.77092500      -4.99987461       6.17059225
H        7.05639447      -3.80839833       7.42481687
H       10.27485127      -3.02517599       5.76726472
H        7.19594221      -1.23224209       6.68562799
H        6.93991597      -0.86589585       4.98815095
H        9.38392189      -4.39039588       8.49944982
H        9.84428264      -3.66194794      10.80260978
H       10.36031540       0.38919405       9.42927060
H        9.88981084      -0.32952299       7.12243118
C       -0.00445707       0.01189536      -1.78238275
H       -0.66409135       0.67374010      -2.43557963
H        0.65740317      -0.63156657      -2.45157240
C       -0.90989263      -0.90692880      -0.91072765
C        0.90977584       0.90977584      -0.90977584
C       -0.00465871       1.77757030       0.00794375
H       -0.66225468       2.44313916      -0.64384735
H        0.64322798       2.43503045       0.67728295
C       -1.78241447       0.00034974      -0.00472694
H       -2.45427497      -0.65498947       0.64260836
H       -2.43311707       0.67328779      -0.65473579
C       -0.91132561       0.90220522       0.91563759
C       -0.01476271      -0.02253852       1.78660255
H       -0.67934791      -0.69751639       2.42135241
H        0.63392994       0.61504881       2.47327442
C        0.01484550      -1.77751727      -0.01636693
H        0.67870853      -2.42144646      -0.68295456
H       -0.62264859      -2.45592969       0.64226336
C        1.78714474       0.01002794       0.00389507
H        2.44202412       0.67113390       0.66197326
H        2.45385902      -0.65136977      -0.64189061
C        0.91606151      -0.90478549       0.90901405
