169
Properties=species:S:1:pos:R:3 pbc="F F F"
C        0.00000000       0.00000000       0.00000000
C        0.88145352       0.88145352      -0.88145352
C        2.14931054       1.25269020      -0.44140773
C        2.95777700       2.05448215      -1.25172140
C        2.51740368       2.47473727      -2.51785857
C        1.22017776       2.11573690      -2.92524731
C        0.40932115       1.31502407      -2.11717632
C        3.38770202       3.36534170      -3.39967162
O        4.78708116       3.28570367      -3.12485468
C        5.40860151       2.10940667      -3.64047304
C        5.14352002       1.94147460      -5.13996634
C        3.63622717       2.03516445      -5.35388487
O        3.11138339       3.23465963      -4.79767319
C        5.86540831       3.03588453      -5.93182250
O        7.28169334       2.87016984      -5.89050345
C        7.72177848       1.57705289      -6.30687002
O        7.08577946       0.53417206      -5.56142492
C        5.66608867       0.59407444      -5.62977969
C        7.69975160       1.35326194      -7.81639222
C        7.72831330       2.43439847      -8.71333034
C        7.72891166       2.22108998     -10.09431598
C        7.72649406       0.92111301     -10.59279617
Br       7.72596207       0.63101483     -12.46043985
C        7.73301836      -0.16660442      -9.72383701
C        7.72843046       0.04967843      -8.34340011
H        2.51716341       0.92921012       0.52897679
H        3.94092553       2.34944059      -0.88809149
H        0.83370054       2.45968411      -3.88366566
H       -0.58519849       1.04108015      -2.45945909
H        3.10026668       4.39130201      -3.14124377
H        6.48033732       2.19046822      -3.42817678
H        5.04824738       1.24027647      -3.07724275
H        3.39394121       2.03807298      -6.42280828
H        3.11747942       1.17061312      -4.92251184
H        5.64544174       4.03251951      -5.53371853
H        5.53732648       3.04446668      -6.97810443
H        8.78079845       1.52942753      -6.02735393
H        5.34022514       0.38736639      -6.65650869
H        5.27506811      -0.22271651      -5.01189910
H        7.74859116       3.45674333      -8.33872102
H        7.73747365       3.07386137     -10.76779327
H        7.74722378      -1.18380236     -10.10725845
H        7.74732752      -0.80955613      -7.67428155
C       -0.88145352      -0.88145352      -0.88145352
C       -0.66714794      -0.91947210      -2.25678843
C       -1.47059084      -1.73140609      -3.06198362
C       -2.48060496      -2.52972782      -2.49966674
C       -2.70025106      -2.44785683      -1.11305408
C       -1.89933755      -1.63657874      -0.30560524
C       -3.37325863      -3.40433026      -3.37512645
O       -2.79952135      -3.76593248      -4.63218569
C       -1.81884859      -4.79833046      -4.54130216
C       -2.36627810      -6.03575227      -3.82293057
C       -2.95723529      -5.57289042      -2.49515079
O       -3.91423245      -4.53871811      -2.69076564
C       -3.43997423      -6.71413452      -4.67900659
O       -2.88326400      -7.30919555      -5.84990709
C       -1.81108907      -8.21333428      -5.58127805
O       -0.77720234      -7.59622593      -4.80794817
C       -1.25429721      -7.05278166      -3.58286392
C       -2.24627545      -9.57538455      -5.04774576
C       -3.54569442     -10.06241381      -5.26793388
C       -3.93059062     -11.31944605      -4.79428096
C       -3.01008639     -12.11405063      -4.11626622
Br      -3.52959033     -13.81395924      -3.47386717
C       -1.70670011     -11.66759679      -3.91595405
C       -1.32572429     -10.40856199      -4.38722272
H        0.11663080      -0.32054078      -2.71348676
H       -1.30130706      -1.73948764      -4.13766290
H       -3.50204094      -3.02300539      -0.65200399
H       -2.08120711      -1.59942287       0.76528923
H       -4.23634628      -2.77480680      -3.62165938
H       -1.50183332      -5.03396914      -5.56317986
H       -0.93371562      -4.40436505      -4.02768593
H       -3.46867908      -6.39870194      -1.98744145
H       -2.17478108      -5.22657463      -1.80924867
H       -4.20112712      -5.99957522      -5.01097745
H       -3.97098060      -7.48332171      -4.10559528
H       -1.35832996      -8.42143521      -6.55781474
H       -1.58998339      -7.86613101      -2.92798582
H       -0.40055452      -6.58414986      -3.07954632
H       -4.27165762      -9.46018910      -5.81220880
H       -4.94540826     -11.66836044      -4.96535958
H       -0.97919393     -12.29025371      -3.40123223
H       -0.29942513     -10.07656641      -4.23606139
C       -0.88145352       0.88145352       0.88145352
C       -0.31231047       1.60469978       1.92639822
C       -1.11911224       2.41606762       2.72880069
C       -2.49739792       2.53052735       2.48207426
C       -3.05433401       1.76375613       1.44307184
C       -2.25062051       0.95116172       0.63973931
C       -3.38689359       3.40018356       3.36563819
O       -2.69887410       4.44722516       4.05154024
C       -2.37426062       5.56198882       3.22223177
C       -3.61103038       6.11042521       2.50350536
C       -4.28817570       4.94103429       1.79606650
O       -4.56114443       3.87960273       2.70296904
C       -4.56857587       6.75304994       3.51148953
O       -4.02691736       7.95161117       4.06383810
C       -3.61952018       8.90465134       3.08152987
O       -2.69888858       8.33945164       2.14303622
C       -3.21333213       7.18300345       1.49360721
C       -4.76435633       9.67525006       2.42979937
C       -6.01196219       9.80022066       3.06385926
C       -7.04894293      10.52491053       2.47046416
C       -6.83985212      11.15426786       1.24628327
Br      -8.24189577      12.13372153       0.44179944
C       -5.60156676      11.07359237       0.61509181
C       -4.56766624      10.34497428       1.20886848
H        0.75386975       1.54242589       2.12884060
H       -0.66268419       2.96405879       3.55171462
H       -4.12605492       1.79876118       1.25223421
H       -2.70291910       0.37723758      -0.16481593
H       -3.75076908       2.72930896       4.15273441
H       -1.91368276       6.32004001       3.86525956
H       -1.60353853       5.25862668       2.50360140
H       -5.24451758       5.25091895       1.35938594
H       -3.67631174       4.56862770       0.96566494
H       -4.78282751       6.07997451       4.34887776
H       -5.53490576       6.97963736       3.04535447
H       -3.04587359       9.65903180       3.63267453
H       -4.06002330       7.46720470       0.85687222
H       -2.43181168       6.81240943       0.82002959
H       -6.18520092       9.32874790       4.03010670
H       -8.00919929      10.59572127       2.97420773
H       -5.42762395      11.57615989      -0.33310396
H       -3.59961146      10.30084929       0.71159219
C        0.88145352      -0.88145352       0.88145352
C        1.94825067      -1.57691072       0.31824707
C        2.75823846      -2.37863256       1.12710953
C        2.52477550      -2.47622556       2.50899846
C        1.42083139      -1.79203859       3.04829200
C        0.60882194      -0.99047833       2.24222126
C        3.39399691      -3.36412070       3.39459773
O        4.69864101      -3.62432809       2.87467040
C        5.60486194      -2.53207527       3.02154400
C        5.68895109      -2.05959714       4.47641271
C        4.26533463      -1.80094606       4.95899581
O        3.43987159      -2.94250765       4.76133696
C        6.36180114      -3.12840107       5.34291313
O        7.74580945      -3.26936757       5.02718961
C        8.47660791      -2.04390550       5.08518798
O        7.88732530      -1.03462544       4.25942570
C        6.52368811      -0.78641264       4.57984205
C        8.80643790      -1.56628556       6.49668230
C        8.83545096      -2.46067461       7.57991654
C        9.15864625      -2.01976619       8.86590518
C        9.48137170      -0.68197288       9.07705867
Br       9.91744503      -0.08385022      10.81612149
C        9.49307863       0.21625565       8.01342797
C        9.16564663      -0.22659746       6.72926491
H        2.15664824      -1.50706381      -0.74631532
H        3.57962532      -2.92856565       0.67026663
H        1.18852173      -1.87978228       4.10874630
H       -0.23152772      -0.46207279       2.68479567
H        2.88855017      -4.33693108       3.40733121
H        6.57943568      -2.86851023       2.65103642
H        5.28923902      -1.71622162       2.36030596
H        4.25299901      -1.57120502       6.03061844
H        3.82368009      -0.93418250       4.45274180
H        5.89739851      -4.11077088       5.20351040
H        6.26115778      -2.89020454       6.40853527
H        9.44694983      -2.26520639       4.62542369
H        6.45785063      -0.34462204       5.58162755
H        6.15826951      -0.02394278       3.88203841
H        8.60296012      -3.51359845       7.42749695
H        9.16102900      -2.72814123       9.68995806
H        9.75973579       1.25857722       8.16952131
H        9.19172100       0.48305561       5.90338754
