89
Properties=species:S:1:pos:R:3 pbc="F F F"
C        0.00000000       0.00000000       0.00000000
C        4.34236798       5.94964492       2.13006950
C        3.99303494       5.23960477       0.88628652
N        4.45023311       5.62189139      -0.31209020
O        3.87694096       4.69321450      -1.17991236
C        3.12975885       3.84241168      -0.41342109
N        3.16898539       4.14437428       0.86701606
C        2.41870914       2.76640818      -1.09773392
C        1.59769999       1.93414602      -0.31146026
C        0.88170444       0.88170444      -0.88170444
C        0.96431915       0.62953149      -2.24483006
C        1.77298292       1.44100788      -3.04068673
C        2.50014076       2.50593807      -2.47943256
O        3.27223444       3.24896756      -3.33704105
H        4.10815736       5.33788014       3.00650617
H        3.77888791       6.88519539       2.20614109
H        5.41111462       6.18549996       2.15910481
H        1.51804256       2.11380074       0.76125595
H        0.40546900      -0.19152092      -2.68655585
H        3.74045803       3.96321185      -2.87260196
C        1.83432378       1.14723230      -4.44906637
C        1.88569676       0.90119526      -5.62858432
Br       1.96876251       0.50337416      -7.53576508
C       -2.82478408       1.60749275      -6.94465207
C       -2.87854657       0.50251485      -5.97032147
N       -3.60195499      -0.60419294      -6.17806677
O       -3.36866085      -1.35493753      -5.02646945
C       -2.52513987      -0.62162033      -4.23883142
N       -2.19992591       0.53332252      -4.77974021
C       -2.12563595      -1.19865305      -2.95856224
C       -1.31054629      -0.41034102      -2.12241896
C       -0.88170444      -0.88170444      -0.88170444
C       -1.25032926      -2.14634309      -0.44200834
C       -2.05567877      -2.94334103      -1.25565773
C       -2.49583995      -2.48091353      -2.50875791
O       -3.28135455      -3.33390056      -3.24298794
H       -1.98520450       2.27547192      -6.72979876
H       -3.74753451       2.19534461      -6.90575231
H       -2.69994626       1.22551982      -7.96308333
H       -1.00881064       0.58590304      -2.44767974
H       -0.91445321      -2.51128824       0.52523751
H       -3.54310606      -2.94055969      -4.09260610
C       -2.41540353      -4.24897281      -0.76624611
C       -2.71667301      -5.34243944      -0.35636388
Br      -3.20380029      -7.11048248       0.30638101
C       -3.31475255      -1.82236833       6.66955917
C       -3.24930044      -0.66358845       5.76064120
N       -3.92093323       0.47057964       5.99270184
O       -3.57864415       1.26923204       4.90219164
C       -2.73228159       0.53243859       4.12087145
N       -2.50438830      -0.66801428       4.60996958
C       -2.22641539       1.15531287       2.90112299
C       -1.40859194       0.36808530       2.06662903
C       -0.88170444       0.88170444       0.88170444
C       -1.15272665       2.18841478       0.49753926
C       -1.95903107       2.98497792       1.31066854
C       -2.49743358       2.48024317       2.50783464
O       -3.27616389       3.33586445       3.24621471
H       -2.50247361      -2.52571272       6.46277044
H       -4.26491052      -2.35167192       6.54470361
H       -3.22913747      -1.50575054       7.71412285
H       -1.18253607      -0.66079450       2.34884577
H       -0.74056114       2.58621847      -0.42627567
H       -3.60909089       2.91193752       4.05524344
C       -2.21596585       4.33479044       0.87986617
C       -2.43114872       5.46525843       0.51906918
Br      -2.77908124       7.29312955      -0.06430903
C        3.15763309      -6.76240296      -1.75809266
C        3.09535180      -5.85161131      -0.60060992
N        3.67396841      -6.13863633       0.57160995
O        3.36413823      -5.02894578       1.35698382
C        2.62757597      -4.18274326       0.57527239
N        2.43372955      -4.65172269      -0.63910864
C        2.17434626      -2.93189126       1.17661372
C        1.36003820      -2.09532002       0.38794805
C        0.88170444      -0.88170444       0.88170444
C        1.20090153      -0.46907214       2.16870702
C        2.00726906      -1.28216412       2.96524434
C        2.49626476      -2.50852531       2.48072132
O        3.28503340      -3.24097361       3.33223604
H        2.87598038      -6.24206077      -2.67850982
H        2.47186127      -7.60423810      -1.61815716
H        4.16976734      -7.15829328      -1.89055085
H        1.09694894      -2.39942024      -0.62578184
H        0.82699279       0.47734918       2.55086033
H        3.58065747      -4.07204509       2.92356929
C        2.31786695      -0.81965157       4.29310393
C        2.57799269      -0.43229731       5.40518634
Br       2.99859400       0.19402177       7.20332953
