81
Properties=species:S:1:pos:R:3 pbc="F F F"
C        0.00000000       0.00000000       0.00000000
C        4.34236798       5.94964492       2.13006950
C        3.99303494       5.23960477       0.88628652
N        4.45023311       5.62189139      -0.31209020
O        3.87694096       4.69321450      -1.17991236
C        3.12975885       3.84241168      -0.41342109
N        3.16898539       4.14437428       0.86701606
C        2.41870914       2.76640818      -1.09773392
C        1.59769999       1.93414602      -0.31146026
C        0.88170444       0.88170444      -0.88170444
C        0.96431915       0.62953149      -2.24483006
C        1.77298292       1.44100788      -3.04068673
Br       1.85395704       1.05320410      -4.89984381
C        2.50014076       2.50593807      -2.47943256
O        3.27223444       3.24896756      -3.33704105
H        4.10815736       5.33788014       3.00650617
H        3.77888791       6.88519539       2.20614109
H        5.41111462       6.18549996       2.15910481
H        1.51804256       2.11380074       0.76125595
H        0.40546900      -0.19152092      -2.68655585
H        3.74045803       3.96321185      -2.87260196
C       -2.99835900       1.68846376      -6.85204815
C       -3.00990881       0.56325732      -5.89970170
N       -3.71503776      -0.55365591      -6.11552103
O       -3.44313278      -1.32245024      -4.98448480
C       -2.59854314      -0.58796450      -4.19908398
N       -2.30776858       0.58404303      -4.72261806
C       -2.16134905      -1.18229563      -2.93920656
C       -1.34528943      -0.39439568      -2.10362116
C       -0.88170444      -0.88170444      -0.88170444
C       -1.21574321      -2.16221877      -0.46071871
C       -2.02143079      -2.95905334      -1.27419339
Br      -2.44820732      -4.70458891      -0.65420872
C       -2.49640488      -2.48066007      -2.50844644
O       -3.27951162      -3.33464996      -3.24408147
H       -2.16814370       2.36906907      -6.64045671
H       -3.93174540       2.25636601      -6.78256282
H       -2.88678379       1.32967657      -7.88040255
H       -1.07037116       0.61416299      -2.41437917
H       -0.85283320      -2.53956383       0.49189310
H       -3.56648581      -2.92976463      -4.08002141
C       -4.30257267      -2.12198884       5.98135956
C       -3.99622333      -0.88693395       5.23706381
N       -4.56175226       0.28944559       5.53301685
O       -3.99968055       1.15498938       4.59539789
C       -3.14929723       0.40945371       3.82684068
N       -3.11863474      -0.85679207       4.18450093
C       -2.42928586       1.09558626       2.75797912
C       -1.60599225       0.30977647       1.92753755
C       -0.88170444       0.88170444       0.88170444
C       -0.95621582       2.24647548       0.63598938
C       -1.76445122       3.04241914       1.44780716
Br      -1.83048863       4.90460920       1.07190712
C       -2.50063614       2.47933197       2.50554328
O       -3.26581210       3.33834515       3.25408580
H       -3.55379547      -2.89393980       5.77967567
H       -5.28246181      -2.51145040       5.68693080
H       -4.31345172      -1.93621806       7.06027611
H       -1.53231332      -0.76415372       2.10242773
H       -0.39046033       2.68960345      -0.17955985
H       -3.74200809       2.87228722       3.96197654
C        4.07825799      -6.15409262      -2.07040723
C        3.79282092      -5.39369342      -0.84016115
N        4.27678717      -5.75245365       0.35497389
O        3.76222113      -4.77825304       1.20959366
C        3.01770391      -3.92817385       0.43971386
N        3.00515032      -4.27188938      -0.83069610
C        2.36417998      -2.80811377       1.11055749
C        1.54467189      -1.97475717       0.32387721
C        0.88170444      -0.88170444       0.88170444
C        1.01710596      -0.58910105       2.23247367
C        1.82525885      -1.40098237       3.02843631
Br       1.97965885      -0.95703889       4.87030721
C        2.49927490      -2.50659151       2.47964499
O        3.27510736      -3.24692801       3.33620768
H        3.83494458      -5.56317736      -2.95859061
H        3.48307110      -7.07254800      -2.09767689
H        5.13741710      -6.42578322      -2.12569055
H        1.42408760      -2.18576674      -0.73926699
H        0.49952202       0.26354258       2.66452449
H        3.70481422      -3.99061761       2.88084002
