162
Properties=species:S:1:pos:R:3 pbc="F F F"
C        1.79209700       1.79209700      -1.79209700
C        3.09429676       1.39402166      -2.08005118
C        3.89607442       2.20137946      -2.88325784
C        3.39500704       3.40457319      -3.39336654
C        2.08424685       3.81851732      -3.10592724
C        1.28739076       2.99098239      -2.29803118
C        1.52979408       5.08026361      -3.60278419
C        2.22563083       6.02473168      -4.33188766
S        1.22789924       7.38132684      -4.65885220
C       -0.07134691       6.61709724      -3.83197998
N        0.20853636       5.42381227      -3.34268482
C       -1.36136796       7.25138899      -3.69275397
S       -2.77572419       6.34268052      -3.32913908
C       -3.69996656       7.78627511      -3.34410319
C       -2.88966630       8.87429851      -3.60693277
N       -1.55569875       8.55026814      -3.82549404
C       -3.33952398      10.26797130      -3.64636574
C       -4.68851306      10.63040719      -3.49919219
C       -5.07858393      11.97391183      -3.52301986
C       -4.12678297      12.97572117      -3.69671663
C       -2.78695463      12.62819017      -3.84705524
C       -2.39221539      11.28955671      -3.82395955
H        3.49130583       0.46253487      -1.68540217
H        4.91444441       1.89699647      -3.11285525
H        4.05461964       4.00326437      -4.01474852
H        0.26769118       3.28732317      -2.05787847
H        3.24854379       6.01612356      -4.67652776
H       -4.75997671       7.74574371      -3.14594486
H       -5.46412303       9.88226463      -3.36187987
H       -6.12705754      12.23675551      -3.40455681
H       -4.43672831      14.01724096      -3.71179523
H       -1.33963100      11.03875098      -3.93962245
C       -1.80017396      13.66175607      -4.02483447
C       -0.97374516      14.52736750      -4.17372458
Br       0.36252033      15.92698799      -4.41446729
C       -1.79209700      -1.79209700      -1.79209700
C       -3.05458046      -2.16966743      -1.34412170
C       -3.85537076      -2.97510200      -2.15023896
C       -3.39090775      -3.40261620      -3.39942281
C       -2.11720009      -3.03157121      -3.85992011
C       -1.32389930      -2.21565293      -3.03685209
C       -1.58629242      -3.47530075      -5.15124871
C       -2.22024626      -4.34403747      -6.01796644
S       -1.23061319      -4.65272840      -7.38473668
C       -0.03401932      -3.59423054      -6.74948045
N       -0.34397358      -3.03708288      -5.59397698
C        1.20934189      -3.34972079      -7.44239610
S        2.17112630      -1.96491821      -7.10230350
C        3.31850938      -2.48337931      -8.26554181
C        2.92131529      -3.67834588      -8.83453439
N        1.70043541      -4.15207932      -8.36841952
C        3.68726096      -4.43100302      -9.83107099
C        4.88982490      -3.95343429     -10.37747693
C        5.60431940      -4.70929475     -11.31337241
C        5.12672033      -5.95298552     -11.71938964
C        3.93394926      -6.43514567     -11.18709437
C        3.21716893      -5.68539315     -10.25307665
H       -3.42103665      -1.84395826      -0.37424796
H       -4.84300415      -3.27405379      -1.80723820
H       -4.04798536      -4.02971818      -3.99492899
H       -0.33170731      -1.91343181      -3.36775369
H       -3.18202503      -4.82662137      -5.93254871
H        4.20542652      -1.89465212      -8.44248626
H        5.29887438      -2.98901114     -10.08988472
H        6.53520875      -4.32551340     -11.72395014
H        5.68819450      -6.53561636     -12.44488603
H        2.28883210      -6.08140952      -9.84616501
C        3.43849373      -7.72155597     -11.60335434
C        3.02354973      -8.79892459     -11.95197206
Br       2.35262036     -10.54093854     -12.51565743
C       -1.79209700       1.79209700       1.79209700
C       -1.54167366       3.15909870       1.86759723
C       -2.34687150       3.95992840       2.67391182
C       -3.39726297       3.39179870       3.40388510
C       -3.65658549       2.01317773       3.33892818
C       -2.83811805       1.22030121       2.51798507
C       -4.73231450       1.37708515       4.10344223
C       -5.55372756       2.01891515       5.00960746
S       -6.63557940       0.90060339       5.73189548
C       -5.96002534      -0.35972457       4.77742954
N       -4.99132525       0.01872518       3.96498303
C       -6.42977328      -1.72196109       4.87496282
S       -6.13782565      -2.86563151       3.62390127
C       -6.95841808      -4.06329890       4.53529257
C       -7.39338075      -3.53961586       5.73780009
N       -7.10187186      -2.19137520       5.90956676
C       -8.08861796      -4.29600502       6.78220012
C       -8.46199281      -5.64019318       6.61928669
C       -9.10796567      -6.33639887       7.64678096
C       -9.39288357      -5.69922934       8.85200060
C       -9.03053360      -4.36590479       9.02366197
C       -8.38583597      -3.66660895       8.00207385
H       -0.72627170       3.60705543       1.30591574
H       -2.15759818       5.02881806       2.73787990
H       -3.99957783       4.05300168       4.02005303
H       -3.01532705       0.14831672       2.44924905
H       -5.57917754       3.05677562       5.30524195
H       -7.05311499      -5.06395966       4.14255653
H       -8.25995355      -6.17612771       5.69619564
H       -9.38727213      -7.37764723       7.50462989
H       -9.89269753      -6.24692014       9.64653049
H       -8.10761362      -2.62605724       8.15718605
C       -9.32193419      -3.70484783      10.26933022
C       -9.56598218      -3.15121263      11.31257738
Br      -9.96058714      -2.25603134      12.99941981
C        1.79209700      -1.79209700       1.79209700
C        1.20210876      -2.70699006       2.65927077
C        2.00928785      -3.50840707       3.46301681
C        3.40252590      -3.39087531       3.39954556
C        4.00880054      -2.46826463       2.53162624
C        3.18089312      -1.67065681       1.72485440
C        5.46188728      -2.29996326       2.45099134
C        6.38545175      -2.95361369       3.24318473
S        7.97385971      -2.42371229       2.87050628
C        7.33523593      -1.37795598       1.66453841
N        6.02231816      -1.41640378       1.53631151
C        8.18796531      -0.52877221       0.86603749
S        7.65517386       0.12693165      -0.63214680
C        9.16460070       0.91831546      -0.81587349
C        9.98043962       0.65732100       0.26844637
N        9.41547742      -0.19041289       1.21417311
C       11.32238728       1.21156712       0.46399290
C       11.95499876       2.01530463      -0.49860781
C       13.23019549       2.54323027      -0.26861745
C       13.89376934       2.27403518       0.92592068
C       13.27791514       1.47572004       1.88609567
C       12.00588556       0.94656501       1.66198032
H        0.12101901      -2.80207972       2.71614415
H        1.55572017      -4.22570177       4.14287420
H        3.99353639      -4.03498724       4.04410890
H        3.62343851      -0.94601830       1.04343601
H        6.23362021      -3.68748202       4.02009287
H        9.34712737       1.52816367      -1.68725184
H       11.47466017       2.25044925      -1.44418944
H       13.70395144       3.16605383      -1.02364282
H       14.88304020       2.68942604       1.09869372
H       11.54010815       0.32782311       2.42645739
C       13.96054935       1.19716792       3.12303515
C       14.53225549       0.96388052       4.15897196
Br      15.45665598       0.58667453       5.83399416
C       -0.00445707       0.01189536      -1.78238275
H       -0.66409135       0.67374010      -2.43557963
H        0.65740317      -0.63156657      -2.45157240
C       -0.90989263      -0.90692880      -0.91072765
C        0.90977584       0.90977584      -0.90977584
C       -0.00465871       1.77757030       0.00794375
H       -0.66225468       2.44313916      -0.64384735
H        0.64322798       2.43503045       0.67728295
C       -1.78241447       0.00034974      -0.00472694
H       -2.45427497      -0.65498947       0.64260836
H       -2.43311707       0.67328779      -0.65473579
C       -0.91132561       0.90220522       0.91563759
C       -0.01476271      -0.02253852       1.78660255
H       -0.67934791      -0.69751639       2.42135241
H        0.63392994       0.61504881       2.47327442
C        0.01484550      -1.77751727      -0.01636693
H        0.67870853      -2.42144646      -0.68295456
H       -0.62264859      -2.45592969       0.64226336
C        1.78714474       0.01002794       0.00389507
H        2.44202412       0.67113390       0.66197326
H        2.45385902      -0.65136977      -0.64189061
C        0.91606151      -0.90478549       0.90901405
