141
Properties=species:S:1:pos:R:3 pbc="F F F"
C        0.00000000       0.00000000       0.00000000
C        0.88219298       0.88219298      -0.88219298
C        2.18439273       0.48411763      -1.17014716
C        2.98617040       1.29147543      -1.97335381
C        2.48510301       2.49466917      -2.48346251
C        1.17434283       2.90861329      -2.19602322
C        0.37748674       2.08107837      -1.38812715
C        0.61989006       4.17035959      -2.69288016
C        1.31572681       5.11482765      -3.42198364
S        0.31799521       6.47142281      -3.74894817
C       -0.98125094       5.70719322      -2.92207596
N       -0.70136766       4.51390825      -2.43278079
C       -2.27127198       6.34148497      -2.78284995
S       -3.68562822       5.43277650      -2.41923506
C       -4.60987058       6.87637109      -2.43419916
C       -3.79957032       7.96439448      -2.69702875
N       -2.46560278       7.64036412      -2.91559002
C       -4.24942800       9.35806727      -2.73646171
C       -5.59841708       9.72050317      -2.58928816
C       -5.98848796      11.06400781      -2.61311584
C       -5.03668699      12.06581715      -2.78681261
C       -3.69685865      11.71828615      -2.93715121
C       -3.30211942      10.37965269      -2.91405552
H        2.58140180      -0.44736915      -0.77549815
H        4.00454039       0.98709245      -2.20295123
H        3.14471562       3.09336035      -3.10484450
H       -0.64221285       2.37741914      -1.14797445
H        2.33863976       5.10621953      -3.76662374
H       -5.66988074       6.83583969      -2.23604083
H       -6.37402705       8.97236061      -2.45197585
H       -7.03696156      11.32685149      -2.49465279
H       -5.34663233      13.10733694      -2.80189121
H       -2.24953503      10.12884696      -3.02971843
C       -2.71007799      12.75185204      -3.11493045
C       -1.88364918      13.61746348      -3.26382056
Br      -0.54738370      15.01708397      -3.50456327
C       -0.88219298      -0.88219298      -0.88219298
C       -2.10526923      -1.33611391      -0.39727438
C       -2.90609991      -2.14130693      -1.20359280
C       -2.48088144      -2.49231754      -2.49003572
C       -1.24688979      -2.04385118      -2.98823836
C       -0.45321792      -1.22927602      -2.16419832
C       -0.75657370      -2.40617722      -4.32037889
C       -1.39090325      -3.26429610      -5.19733875
S       -0.45210438      -3.46764536      -6.61861646
C        0.72491493      -2.38439429      -5.98853888
N        0.44397274      -1.89287797      -4.79641615
C        1.92354031      -2.05345986      -6.72314339
S        2.83852976      -0.64239018      -6.36252291
C        3.95319258      -1.05677377      -7.59711849
C        3.58295284      -2.24265931      -8.20214645
N        2.40641777      -2.79144557      -7.70532356
C        4.33475218      -2.91543481      -9.26441836
C        5.48917937      -2.36015486      -9.84039876
C        6.19253491      -3.04111778     -10.84005282
C        5.75160661      -4.28640364     -11.28114573
C        4.60650958      -4.84520400     -10.71988428
C        3.90105347      -4.17035919      -9.72228308
H       -2.44097306      -1.07005670       0.60149896
H       -3.86308875      -2.49965537      -0.83183995
H       -3.13645859      -3.12216416      -3.08429771
H        0.50872958      -0.86798450      -2.52392583
H       -2.32582694      -3.79349949      -5.09215661
H        4.80460170      -0.42106101      -7.78554048
H        5.86847251      -1.39154188      -9.52724004
H        7.08611219      -2.59774947     -11.27290544
H        6.30428674      -4.81063447     -12.05624808
H        3.01039000      -4.62566190      -9.29375846
C        4.14915619      -6.13349186     -11.17236883
C        3.76612273      -7.21243295     -11.55132464
Br       3.14679003      -8.95698943     -12.16406414
C       -0.88219298       0.88219298       0.88219298
C       -0.42259607       1.28267177       2.13338969
C       -1.23002673       2.08551738       2.93545554
C       -2.49451622       2.48286130       2.48585717
C       -2.97049242       2.08130451       1.22718241
C       -2.14234064       1.27540727       0.42894434
C       -4.29577512       2.45810418       0.72925051
C       -5.24142429       3.17125232       1.43986149
S       -6.67779245       3.34275276       0.51782099
C       -5.94333033       2.47980822      -0.77512031
N       -4.70418606       2.08753218      -0.54639687
C       -6.64744754       2.21321811      -2.00760271
S       -5.80792294       1.81288916      -3.45442876
C       -7.30504529       1.67320254      -4.27754816
C       -8.35467360       1.92074642      -3.41356711
N       -7.96206631       2.24958272      -2.12129767
C       -9.77358579       1.84082247      -3.76930729
C      -10.21023666       1.57960146      -5.07846388
C      -11.57433633       1.49139159      -5.37709223
C      -12.52307144       1.66528418      -4.37241285
C      -12.10205835       1.92808639      -3.07156603
C      -10.74256159       2.01703242      -2.76800521
H        0.55690477       0.97593940       2.49049617
H       -0.87780079       2.40265371       3.91412956
H       -3.09087468       3.10828328       3.14376250
H       -2.48592679       0.94818255      -0.55092859
H       -5.19121599       3.58443186       2.43583519
H       -7.31863699       1.40647407      -5.32311128
H       -9.50533502       1.43777306      -5.89279867
H      -11.89466699       1.28550406      -6.39562833
H      -13.58080678       1.59301005      -4.61122102
H      -10.43376502       2.21964569      -1.74438035
C      -13.08046513       2.10640046      -2.03016108
C      -13.89988081       2.25573849      -1.15798444
Br     -15.22480665       2.49720546       0.25225143
C        0.88219298      -0.88219298       0.88219298
C        0.60616784      -2.24204498       0.99044470
C        1.41147542      -3.04285420       1.79667003
C        2.48760245      -2.48176494       2.49386730
C        2.77296905      -1.11026923       2.39574106
C        1.95394136      -0.31743166       1.57531924
C        3.87647980      -0.48107152       3.12557849
C        4.70319423      -1.12128557       4.02805830
S        5.82157532      -0.01102997       4.70576090
C        5.15200271       1.24350353       3.73951906
N        4.15963666       0.86871318       2.95439789
C        5.65068652       2.59758102       3.79995743
S        5.35621036       3.72179538       2.53196836
C        6.21886377       4.92045406       3.40228997
C        6.66766345       4.41210074       4.60629019
N        6.35290042       3.07375563       4.81120657
C        7.39892389       5.17485886       5.62103595
C        7.79561896       6.50766511       5.42342040
C        8.47609212       7.21092888       6.42347245
C        8.77270170       6.59223963       7.63548069
C        8.38742136       5.27024276       7.84140010
C        7.70828142       4.56398184       6.84728921
H       -0.22924890      -2.68443419       0.45434551
H        1.20228110      -4.10618799       1.88611497
H        3.08902558      -3.14266802       3.11122686
H        2.15104097       0.74914598       1.48128576
H        4.71396444      -2.15335217       4.34416643
H        6.32547637       5.91095853       2.98748194
H        7.58557317       7.02909696       4.49383319
H        8.77314279       8.24324429       6.25464422
H        9.29937960       7.14537829       8.40859450
H        7.41259181       3.53259902       7.02903756
C        8.69085739       4.62834992       9.09419704
C        8.94498506       4.09076468      10.14341447
Br       9.35588801       3.22153480      11.83991033
