174
Properties=species:S:1:pos:R:3 pbc="F F F"
C        1.79131620       1.79131620      -1.79131620
C        2.77907863       1.21189680      -2.58320621
C        3.59803683       2.02171974      -3.37582546
C        3.42342167       3.41290848      -3.39880251
C        2.42193407       3.97861034      -2.59187458
C        1.61077463       3.17175490      -1.78852319
N        4.28004483       4.25657284      -4.18361761
C        3.77954528       5.32048268      -4.94991821
N        4.51916652       6.28754431      -5.39864849
C        5.89006647       6.26834424      -5.13621915
C        6.66779887       7.35629252      -5.54033216
C        8.04673922       7.36954374      -5.31575795
C        8.66159774       6.28633329      -4.69008804
C        7.89521983       5.19419821      -4.28572169
C        6.51181551       5.19419453      -4.51018603
C        5.66458987       4.08809244      -4.02865870
O        6.22139822       3.13433878      -3.48634809
C        2.34299611       5.33515584      -5.36407843
C        1.73997304       4.19885505      -5.91990914
C        0.40924213       4.25081003      -6.34281711
C       -0.30547063       5.44346873      -6.23382715
C        0.29737873       6.58729345      -5.71104009
C        1.62643848       6.53607285      -5.28331455
H        2.93016423       0.13569610      -2.58472870
H        4.36795111       1.54972487      -3.98271793
H        2.29134115       5.05705709      -2.53773225
H        0.85523549       3.63163753      -1.15608057
H        6.19135935       8.19953999      -6.03408277
H        8.63868853       8.22556087      -5.63009395
H        9.73411264       6.29498572      -4.51166886
H        8.37125199       4.35419232      -3.78458351
H        2.29769242       3.27382147      -6.04186060
H       -0.05417927       3.36326809      -6.76676238
H       -0.25198257       7.52296120      -5.64402974
H        2.10284629       7.43372691      -4.89524742
C       -1.67407154       5.49767420      -6.67834184
C       -2.82027481       5.54307129      -7.05062290
Br      -4.67358854       5.61647453      -7.65256987
C       -1.79131620      -1.79131620      -1.79131620
C       -1.20971686      -2.60232581      -2.76213897
C       -2.01921637      -3.39506030      -3.58130536
C       -3.41260647      -3.39893427      -3.42359192
C       -3.98047208      -2.57288685      -2.43906006
C       -3.17371228      -1.76948185      -1.62785858
N       -4.25538728      -4.18391802      -4.28092999
C       -5.33468358      -4.93097189      -3.78429071
N       -6.29812392      -5.37697537      -4.53026002
C       -6.25899138      -5.13172452      -5.90391396
C       -7.34228579      -5.53211486      -6.69002291
C       -7.33596852      -5.32441730      -8.07165508
C       -6.23771567      -4.71961830      -8.68068509
C       -5.15009366      -4.31916568      -7.90588039
C       -5.16970949      -4.52653696      -6.51994961
C       -4.06815589      -4.04810813      -5.66507700
O       -3.10107543      -3.52436312      -6.21664653
C       -5.37196063      -5.32717642      -2.34309332
C       -4.25003030      -5.88932900      -1.71937793
C       -4.32340247      -6.29513073      -0.38433608
C       -5.52324405      -6.16281567       0.31423447
C       -6.65310677      -5.63360797      -0.30899752
C       -6.58042983      -5.22295985      -1.64243620
H       -0.13185621      -2.61882061      -2.89991222
H       -1.54539778      -4.01710522      -4.33789091
H       -5.05967994      -2.50400546      -2.32244509
H       -3.63493027      -1.12221542      -0.88580789
H       -8.19729884      -6.00964433      -6.21803895
H       -8.18852260      -5.63557834      -8.67024240
H       -6.23110210      -4.55434619      -9.75531893
H       -4.29823555      -3.83420525      -8.37758702
H       -3.31984583      -6.02940766      -2.26412099
H       -3.44686676      -6.72410898       0.09512454
H       -7.59449951      -5.54843570       0.22792684
H       -7.46736038      -4.82989131      -2.13456894
C       -5.59959411      -6.58972646       1.68737606
C       -5.66353729      -6.94726424       2.83738215
Br      -5.76692799      -7.52537260       4.69684473
C       -1.79131620       1.79131620       1.79131620
C       -2.96169451       1.27320501       2.33928211
C       -3.77772584       2.08682028       3.13103590
C       -3.42095506       3.41649679       3.39768080
C       -2.23664259       3.92106922       2.83470717
C       -1.42613325       3.11305433       2.03186514
N       -4.26797006       4.27023640       4.18202883
C       -3.75487280       5.12690709       5.16816628
N       -4.41741010       6.12860156       5.65934765
C       -5.71908535       6.36275795       5.21278656
C       -6.39534502       7.49478903       5.67428950
C       -7.70645569       7.75679323       5.26879198
C       -8.35629438       6.88019194       4.40153275
C       -7.69166911       5.74589966       3.93757097
C       -6.37436968       5.49615833       4.34566806
C       -5.62036329       4.34591959       3.81505813
O       -6.20899023       3.57535721       3.05773764
C       -2.41365003       4.85724017       5.77134017
C       -2.06689317       3.57473664       6.21710742
C       -0.82545531       3.35709791       6.82031606
C        0.05332671       4.42506431       7.00008766
C       -0.29746886       5.71039351       6.58784989
C       -1.53640923       5.92914244       5.98027422
H       -3.25639603       0.24449397       2.14969903
H       -4.69111754       1.66447270       3.54480367
H       -1.95333982       4.96239616       2.97039452
H       -0.52440318       3.52931730       1.58923312
H       -5.89268461       8.17663606       6.35566144
H       -8.21843116       8.64482435       5.63108784
H       -9.37568416       7.08286761       4.08221545
H       -8.19231902       5.06816519       3.24954361
H       -2.75771820       2.74185021       6.11380607
H       -0.56041458       2.35795278       7.15748384
H        0.37792939       6.54751350       6.74542426
H       -1.81845436       6.93534248       5.67802379
C        1.32868252       4.20068209       7.62994493
C        2.39679301       4.01276198       8.15745040
Br       4.12383733       3.70891106       9.01038213
C        1.79131620      -1.79131620       1.79131620
C        1.20540509      -2.68907630       2.67970025
C        2.01338154      -3.48243435       3.49976614
C        3.41119209      -3.39962526       3.42431531
C        3.98329139      -2.48683308       2.52229452
C        3.17697563      -1.68315582       1.71092127
N        4.24976465      -4.18565474       4.28481590
C        5.39705072      -4.84109929       3.81179616
N        6.34213388      -5.27600696       4.58721847
C        6.21240641      -5.11453349       5.96768997
C        7.27203826      -5.49968149       6.79270380
C        7.17678429      -5.37428483       8.18097179
C        6.01272885      -4.86829272       8.75699750
C        4.94815203      -4.48398793       7.94299977
C        5.05688055      -4.60806789       6.55124763
C        3.97827839      -4.14210659       5.66095603
O        2.95292462      -3.70623715       6.18292331
C        5.53755964      -5.14916172       2.35550901
C        4.48701653      -5.73509969       1.63662101
C        4.65817054      -6.05696721       0.28773153
C        5.88509719      -5.81735197      -0.33062391
C        6.94551141      -5.26378188       0.38641898
C        6.77485432      -4.93695094       1.73402063
H        0.12439539      -2.77348894       2.75270470
H        1.53568221      -4.17326099       4.19145072
H        5.06138725      -2.35137528       2.47336796
H        3.63982479      -0.96874519       1.03438361
H        8.17855308      -5.90039280       6.34603624
H        8.01159915      -5.67228187       8.81046233
H        5.93672676      -4.76714090       9.83689957
H        4.04436013      -4.07567847       8.38998923
H        3.53786385      -5.95842712       2.11708352
H        3.83637182      -6.50502258      -0.26554320
H        7.90863100      -5.09501822      -0.08864085
H        7.60842220      -4.52485560       2.29854283
C        6.06257718      -6.15785289      -1.71848557
C        6.21121668      -6.44302240      -2.88081971
Br       6.45155417      -6.90411739      -4.76021570
C       -0.00445707       0.01189536      -1.78238275
H       -0.66409135       0.67374010      -2.43557963
H        0.65740317      -0.63156657      -2.45157240
C       -0.90989263      -0.90692880      -0.91072765
C        0.90977584       0.90977584      -0.90977584
C       -0.00465871       1.77757030       0.00794375
H       -0.66225468       2.44313916      -0.64384735
H        0.64322798       2.43503045       0.67728295
C       -1.78241447       0.00034974      -0.00472694
H       -2.45427497      -0.65498947       0.64260836
H       -2.43311707       0.67328779      -0.65473579
C       -0.91132561       0.90220522       0.91563759
C       -0.01476271      -0.02253852       1.78660255
H       -0.67934791      -0.69751639       2.42135241
H        0.63392994       0.61504881       2.47327442
C        0.01484550      -1.77751727      -0.01636693
H        0.67870853      -2.42144646      -0.68295456
H       -0.62264859      -2.45592969       0.64226336
C        1.78714474       0.01002794       0.00389507
H        2.44202412       0.67113390       0.66197326
H        2.45385902      -0.65136977      -0.64189061
C        0.91606151      -0.90478549       0.90901405
