145
Properties=species:S:1:pos:R:3 pbc="F F F"
C        0.00000000       0.00000000       0.00000000
C        0.88141217       0.88141217      -0.88141217
C        1.86917460       0.30199278      -1.67330218
C        2.68813280       1.11181572      -2.46592143
C        2.51351765       2.50300446      -2.48889848
C        1.51203004       3.06870631      -1.68197056
C        0.70087060       2.26185088      -0.87861917
N        3.37014081       3.34666882      -3.27371359
C        2.86964125       4.41057866      -4.04001419
N        3.60926249       5.37764028      -4.48874446
C        4.98016244       5.35844022      -4.22631513
C        5.75789485       6.44638850      -4.63042813
C        7.13683519       6.45963972      -4.40585392
C        7.75169371       5.37642927      -3.78018402
C        6.98531581       4.28429418      -3.37581767
C        5.60191149       4.28429051      -3.60028200
C        4.75468585       3.17818842      -3.11875468
O        5.31149419       2.22443475      -2.57644407
C        1.43309209       4.42525181      -4.45417440
C        0.83006902       3.28895102      -5.01000511
C       -0.50066189       3.34090601      -5.43291309
C       -1.21537465       4.53356470      -5.32392313
Br      -3.01174389       4.60471258      -5.90737482
C       -0.61252530       5.67738943      -4.80113606
C        0.71653446       5.62616883      -4.37341052
H        2.02026021      -0.77420792      -1.67482467
H        3.45804709       0.63982084      -3.07281391
H        1.38143712       4.14715307      -1.62782823
H       -0.05466853       2.72173351      -0.24617654
H        5.28145533       7.28963597      -5.12417875
H        7.72878451       7.31565684      -4.72018993
H        8.82420862       5.38508170      -3.60176484
H        7.46134797       3.44428829      -2.87467948
H        1.38778840       2.36391744      -5.13195658
H       -0.96408329       2.45336406      -5.85685835
H       -1.16188659       6.61305718      -4.73412571
H        1.19294227       6.52382289      -3.98534340
C       -0.88141217      -0.88141217      -0.88141217
C       -0.56451026      -1.05379914      -2.22616016
C       -1.38290015      -1.84614853      -3.03682128
C       -2.51127385      -2.48783304      -2.50631370
C       -2.81482381      -2.30058538      -1.14729772
C       -2.00521712      -1.49797129      -0.33815223
N       -3.37671013      -3.27683295      -3.33698015
C       -3.87939701      -4.51948369      -2.92135340
N       -4.89753456      -5.10046384      -3.47764883
C       -5.51880198      -4.48208117      -4.56403465
C       -6.66995289      -5.06350714      -5.10125146
C       -7.31210834      -4.48908012      -6.20114037
C       -6.80050807      -3.32852578      -6.77927314
C       -5.65047290      -2.74198472      -6.25297004
C       -5.01800039      -3.32301934      -5.14546427
C       -3.84409986      -2.68637466      -4.52115442
O       -3.39760112      -1.66765662      -5.04711527
C       -3.18479076      -5.28594594      -1.84178160
C       -1.79557777      -5.46846449      -1.86498290
C       -1.17445010      -6.22831843      -0.87038867
C       -1.94502321      -6.82459732       0.12750735
Br      -1.10392610      -7.86164766       1.46523025
C       -3.33146294      -6.67388803       0.13935078
C       -3.95388468      -5.91062454      -0.85160459
H        0.30717759      -0.56967084      -2.65838372
H       -1.12111574      -1.96315218      -4.08641392
H       -3.71159512      -2.73427372      -0.71054958
H       -2.26955142      -1.34980242       0.70611232
H       -7.06726188      -5.97214597      -4.65586219
H       -8.21063641      -4.94899109      -6.60500378
H       -7.29957730      -2.87781331      -7.63366454
H       -5.25787094      -1.82838682      -6.69405799
H       -1.18886045      -5.03749821      -2.65730376
H       -0.09533807      -6.35991093      -0.89089013
H       -3.93550357      -7.15455572       0.90476299
H       -5.03709711      -5.81069077      -0.85432068
C       -0.88141217       0.88141217       0.88141217
C       -2.26035747       0.89460374       0.68950835
C       -3.06471881       1.71627989       1.48487126
C       -2.50053199       2.51474806       2.49014054
C       -1.10697969       2.48827395       2.66745327
C       -0.29961547       1.67736770       1.86435747
N       -3.31337749       3.38670808       3.29043765
C       -3.13992807       3.50197447       4.67833156
N       -3.60889892       4.48946821       5.37728012
C       -4.34914559       5.48243310       4.73333909
C       -4.77322497       6.59053671       5.47094981
C       -5.53334526       7.59780122       4.87118235
C       -5.88330235       7.49945073       3.52555391
C       -5.46798281       6.39625880       2.78118604
C       -4.70041126       5.39483098       3.39124176
C       -4.18442046       4.25393927       2.61326922
O       -4.50854317       4.17481852       1.42901132
C       -2.45926018       2.41145845       5.44179967
C       -2.81019298       1.06832068       5.25051150
C       -2.19317018       0.07050337       6.00948365
C       -1.24839972       0.41947205       6.97424141
Br      -0.42355058      -0.93100855       8.00780147
C       -0.91697643       1.75647155       7.19255221
C       -1.52941878       2.75526260       6.43143243
H       -2.72034884       0.28121069      -0.08068257
H       -4.13939833       1.71649903       1.31478448
H       -0.62459218       3.13442276       3.39740347
H        0.77860206       1.68725678       2.00458679
H       -4.50673751       6.66635149       6.52218105
H       -5.85132879       8.45750039       5.45580210
H       -6.47255019       8.28303510       3.05546986
H       -5.72817128       6.32478448       1.72735998
H       -3.57027076       0.78745241       4.52593924
H       -2.46547755      -0.97011151       5.85077309
H       -0.19569943       2.03168091       7.95791596
H       -1.28638880       3.79932639       6.61639337
C        0.88141217      -0.88141217       0.88141217
C        0.70887133      -2.26294904       0.87264919
C        1.50399447      -3.06768087       1.69419461
C        2.48994427      -2.50087808       2.51459823
C        2.64787554      -1.10475274       2.51007864
C        1.84482831      -0.29727886       1.69923348
N        3.28941918      -3.31473498       3.38636906
C        4.67297716      -3.12358882       3.52366812
N        5.36464668      -3.59668737       4.51431319
C        4.71745337      -4.35981952       5.48764490
C        5.44545974      -4.78920247       6.60004927
C        4.84251297      -5.57179038       7.58802548
C        3.50347334      -5.93905907       7.46577459
C        2.76876657      -5.51859798       6.35806312
C        3.38181273      -4.72849933       5.37617194
C        2.61260955      -4.20732228       4.23169711
O        1.43427486      -4.54678255       4.13131560
C        5.44187775      -2.41697610       2.45366446
C        5.27432967      -2.75150564       1.10318984
C        6.03834245      -2.10989966       0.12491509
C        6.98467501      -1.15679405       0.50064412
Br       8.02520100      -0.29858269      -0.82344019
C        7.17960202      -0.84130634       1.84509182
C        6.41336365      -1.47837652       2.82437364
H       -0.04610253      -2.72491591       0.24206358
H        1.34914263      -4.14452413       1.67701507
H        3.36184282      -0.62141894       3.17315666
H        1.96963751       0.78254218       1.72614618
H        6.49165559      -4.50917507       6.69443938
H        5.41952290      -5.89371833       8.45139005
H        3.03088732      -6.54583452       8.23433331
H        1.71982675      -5.79242523       6.26806377
H        4.56457217      -3.51756781       0.80152243
H        5.89803284      -2.36964488      -0.92153859
H        7.93077085      -0.11338818       2.14113727
H        6.58028456      -1.24758551       3.87423850
