150
Properties=species:S:1:pos:R:3 pbc="F F F"
C        1.79140208       1.79140208      -1.79140208
C        1.38213433       3.08624895      -2.10344935
C        2.19277088       3.89451555      -2.90544409
C        3.41037898       3.40691586      -3.40298910
C        3.81120577       2.10162412      -3.08273220
C        3.00127561       1.29590423      -2.27578333
C        4.24618320       4.29992718      -4.24666596
N        4.08198182       5.58401378      -4.27166930
C        4.91268910       6.23304874      -5.11049300
S        4.87135145       7.92615232      -5.25927034
C        6.10302561       7.90374263      -6.44267871
C        6.55815550       6.62600725      -6.72462272
C        7.59081728       6.42524362      -7.74130660
C        7.43188811       5.45456574      -8.73901333
C        8.41079256       5.27410348      -9.72194740
C        9.54733671       6.07849223      -9.72240589
Br      10.86633467       5.84050343     -11.05472293
C        9.71656932       7.05820821      -8.74739008
C        8.74335371       7.22674563      -7.75761424
C        5.85866796       5.65528215      -5.92061099
C        5.99007273       4.21508084      -5.82648984
O        6.80795854       3.56790451      -6.47004357
O        5.14109097       3.57391193      -4.96306357
H        0.43952177       3.47720428      -1.72803249
H        1.86430768       4.90557275      -3.14064903
H        4.75454035       1.69780697      -3.44311847
H        3.32456345       0.28741283      -2.02927927
H        6.42365594       8.83975591      -6.88256897
H        6.54810539       4.82173388      -8.76529011
H        8.27405637       4.50425858     -10.47621093
H       10.59978423       7.69157968      -8.74547720
H        8.90007363       7.99036559      -6.99806026
C       -1.79140208      -1.79140208      -1.79140208
C       -2.59428077      -1.20807914      -2.76947272
C       -3.39623938      -2.01648397      -3.58000717
C       -3.40249300      -3.40881420      -3.40897674
C       -2.59073614      -3.98425046      -2.42057549
C       -1.78489845      -3.17427863      -1.61378609
C       -4.26403013      -4.23348306      -4.29526315
N       -4.74204960      -3.78410030      -5.41151500
C       -5.52135166      -4.66089524      -6.07398394
S       -6.21573904      -4.26621821      -7.57481686
C       -6.99709629      -5.78225996      -7.67009072
C       -6.73250785      -6.59583472      -6.58044289
C       -7.35109822      -7.91837869      -6.48789059
C       -7.98802932      -8.32821125      -5.30922661
C       -8.59516053      -9.58576122      -5.22592168
C       -8.58420118     -10.43384045      -6.33019321
Br      -9.41115960     -12.12960989      -6.22079153
C       -7.96850282     -10.03862571      -7.51503908
C       -7.34988613      -8.78692004      -7.59090741
C       -5.84950188      -5.92738165      -5.65767756
C       -5.26550193      -6.36170497      -4.40443652
O       -5.44934848      -7.47360133      -3.92295681
O       -4.47059851      -5.45833292      -3.74913504
H       -2.60273714      -0.13014091      -2.91188050
H       -4.01754383      -1.55012875      -4.34285689
H       -2.56418324      -5.06105871      -2.27022384
H       -1.15532015      -3.63162349      -0.85431193
H       -7.62618540      -5.99430248      -8.52549293
H       -8.01855518      -7.67912023      -4.43745396
H       -9.06898287      -9.88902651      -4.29651650
H       -7.96058943     -10.69495815      -8.38129353
H       -6.86442470      -8.50172297      -8.52235181
C       -1.79140208       1.79140208       1.79140208
C       -2.77405139       1.20867515       2.58910609
C       -3.57637834       2.01601160       3.40034058
C       -3.40260722       3.40798507       3.40969166
C       -2.41078096       3.98297549       2.60180564
C       -1.60529034       3.17317272       1.79450011
C       -4.27150213       4.23039005       4.29088416
N       -4.93661329       3.72228154       5.27877006
C       -5.68986841       4.61089428       5.95546816
S       -6.61126562       4.14079112       7.30471737
C       -7.22126343       5.72383535       7.50434818
C       -6.72851500       6.61510952       6.56516095
C       -7.17601936       8.00795358       6.57339457
C       -7.60587300       8.62716961       5.39242458
C       -8.05064878       9.95346073       5.40273392
C       -8.08523512      10.66229723       6.60070249
Br      -8.69351608      12.45148863       6.61655632
C       -7.67543461      10.05950467       7.78722833
C       -7.21772608       8.73834239       7.77164511
C       -5.81606304       5.94799896       5.67049910
C       -5.03067709       6.44322376       4.55774256
O       -5.02388370       7.61691085       4.20511207
O       -4.26598618       5.52561231       3.88646798
H       -2.92296802       0.13158419       2.59020634
H       -4.33926051       1.54966060       4.02160835
H       -2.24314454       5.05753375       2.59478750
H       -0.83571191       3.62920229       1.17634136
H       -7.92670227       5.91635689       8.30292166
H       -7.59780121       8.09050799       4.44682018
H       -8.36386315      10.41847991       4.47218281
H       -7.70425541      10.60682695       8.72575875
H       -6.89125573       8.28940043       8.70784331
C        1.79140208      -1.79140208       1.79140208
C        1.69791408      -3.17833429       1.69558426
C        2.50973752      -3.98436907       2.49862392
C        3.41099830      -3.40509721       3.40418844
C        3.49544419      -2.00790915       3.49220875
C        2.68603895      -1.20274704       2.68417719
C        4.26088195      -4.29669914       4.23519525
N        4.45527436      -5.54232238       3.94006816
C        5.23421990      -6.20495394       4.81705701
S        5.63009112      -7.84194964       4.58473335
C        6.52665508      -7.88467403       6.03811785
C        6.54140641      -6.66761038       6.69976868
C        7.23777434      -6.53958125       7.98001192
C        6.60906926      -5.93821448       9.07818344
C        7.26781720      -5.83136551      10.30766073
C        8.55472250      -6.34363938      10.44987296
Br       9.44207878      -6.20668831      12.11279394
C        9.19074559      -6.95753498       9.37388704
C        8.53550296      -7.05010958       8.14210104
C        5.78946804      -5.68506092       5.96003213
C        5.53604798      -4.28103180       6.21456364
O        5.98755432      -3.67746388       7.18088843
O        4.74737432      -3.62288872       5.30780342
H        1.00183728      -3.64210223       1.00081903
H        2.43020036      -5.06689511       2.41343399
H        4.19185519      -1.52779050       4.17582010
H        2.76383630      -0.12061616       2.75680310
H        6.99137977      -8.81504812       6.33955292
H        5.60067537      -5.54032642       8.99412758
H        6.76705012      -5.34650179      11.14097396
H       10.19356943      -7.36275979       9.48051189
H        9.05441581      -7.52342668       7.31065699
C       -0.00445707       0.01189536      -1.78238275
H       -0.66409135       0.67374010      -2.43557963
H        0.65740317      -0.63156657      -2.45157240
C       -0.90989263      -0.90692880      -0.91072765
C        0.90977584       0.90977584      -0.90977584
C       -0.00465871       1.77757030       0.00794375
H       -0.66225468       2.44313916      -0.64384735
H        0.64322798       2.43503045       0.67728295
C       -1.78241447       0.00034974      -0.00472694
H       -2.45427497      -0.65498947       0.64260836
H       -2.43311707       0.67328779      -0.65473579
C       -0.91132561       0.90220522       0.91563759
C       -0.01476271      -0.02253852       1.78660255
H       -0.67934791      -0.69751639       2.42135241
H        0.63392994       0.61504881       2.47327442
C        0.01484550      -1.77751727      -0.01636693
H        0.67870853      -2.42144646      -0.68295456
H       -0.62264859      -2.45592969       0.64226336
C        1.78714474       0.01002794       0.00389507
H        2.44202412       0.67113390       0.66197326
H        2.45385902      -0.65136977      -0.64189061
C        0.91606151      -0.90478549       0.90901405
