158
Properties=species:S:1:pos:R:3 pbc="F F F"
C        1.79140208       1.79140208      -1.79140208
C        1.38213433       3.08624895      -2.10344935
C        2.19277088       3.89451555      -2.90544409
C        3.41037898       3.40691586      -3.40298910
C        3.81120577       2.10162412      -3.08273220
C        3.00127561       1.29590423      -2.27578333
C        4.24618320       4.29992718      -4.24666596
N        4.08198182       5.58401378      -4.27166930
C        4.91268910       6.23304874      -5.11049300
S        4.87135145       7.92615232      -5.25927034
C        6.10302561       7.90374263      -6.44267871
C        6.55815550       6.62600725      -6.72462272
C        7.59081728       6.42524362      -7.74130660
C        7.43188811       5.45456574      -8.73901333
C        8.41079256       5.27410348      -9.72194740
C        9.54733671       6.07849223      -9.72240589
C        9.71656932       7.05820821      -8.74739008
C        8.74335371       7.22674563      -7.75761424
C        5.85866796       5.65528215      -5.92061099
C        5.99007273       4.21508084      -5.82648984
O        6.80795854       3.56790451      -6.47004357
O        5.14109097       3.57391193      -4.96306357
H        0.43952177       3.47720428      -1.72803249
H        1.86430768       4.90557275      -3.14064903
H        4.75454035       1.69780697      -3.44311847
H        3.32456345       0.28741283      -2.02927927
H        6.42365594       8.83975591      -6.88256897
H        6.54810539       4.82173388      -8.76529011
H        8.27405637       4.50425858     -10.47621093
H       10.59978423       7.69157968      -8.74547720
H        8.90007363       7.99036559      -6.99806026
C       10.55237716       5.89715126     -10.73759511
C       11.39409853       5.74527820     -11.58781609
Br      12.75509080       5.49971229     -12.96255149
C       -1.79140208      -1.79140208      -1.79140208
C       -1.33919028      -2.18271797      -3.04992438
C       -2.14438165      -2.99476374      -3.85358513
C       -3.40619703      -3.41070838      -3.40337853
C       -3.85079636      -3.00965358      -2.13511214
C       -3.04162430      -2.20130537      -1.33003350
C       -4.22878263      -4.27878495      -4.28520876
N       -3.72264963      -4.93494556      -5.28006970
C       -4.61920181      -5.65222892      -5.98480011
S       -4.14208893      -6.60538553      -7.30929966
C       -5.75312994      -7.08853650      -7.60778051
C       -6.65571477      -6.54454213      -6.70852857
C       -8.08418981      -6.83061088      -6.84256682
C       -9.02687794      -5.79488829      -6.80370095
C      -10.39155708      -6.06573699      -6.94954936
C      -10.81905803      -7.37498869      -7.15418812
C       -9.89601840      -8.41615253      -7.20999668
C       -8.53381452      -8.14439387      -7.04950518
C       -5.97047437      -5.71423220      -5.74985452
C       -6.45836015      -4.96209768      -4.61118559
O       -7.63443525      -4.94448477      -4.26698660
O       -5.53034040      -4.24456433      -3.90316174
H       -0.36493543      -1.86570830      -3.41411482
H       -1.77976822      -3.29669689      -4.83406436
H       -4.81890685      -3.32430703      -1.75225191
H       -3.39409276      -1.90093803      -0.34622477
H       -5.95648163      -7.74490649      -8.44459270
H       -8.71606688      -4.76354064      -6.65552185
H      -11.10600980      -5.24882650      -6.89968957
H      -10.22386329      -9.43937395      -7.37360387
H       -7.82978655      -8.97365843      -7.08505450
C      -12.22320439      -7.65348500      -7.31043415
C      -13.39917696      -7.88672566      -7.44129019
Br     -15.30062514      -8.26385609      -7.65287336
C       -1.79140208       1.79140208       1.79140208
C       -3.14805068       1.50169752       1.92208444
C       -3.95287424       2.30567309       2.73418320
C       -3.40418675       3.40509916       3.41099804
C       -2.03749505       3.68714004       3.27092700
C       -1.23245487       2.87852486       2.46198344
C       -4.29209071       4.23102257       4.26966307
N       -5.44243622       3.80808226       4.68714641
C       -6.12224528       4.69832589       5.43565967
S       -7.63915385       4.31611685       6.10150341
C       -7.78334216       5.87009578       6.79600901
C       -6.68900589       6.68003427       6.53974530
C       -6.66593656       8.05646800       7.03496295
C       -6.32515068       9.11614404       6.18417247
C       -6.32008479      10.43437482       6.65238383
C       -6.67492285      10.70120667       7.97210531
C       -7.03038045       9.66273303       8.82905413
C       -7.02065226       8.34464021       8.36242111
C       -5.71296408       5.97026089       5.75133612
C       -4.40900917       6.36525143       5.25738282
O       -3.90462231       7.45938142       5.48190288
O       -3.73037028       5.44377930       4.50391689
H       -3.58856707       0.65496707       1.40122441
H       -5.01105075       2.06836811       2.83111060
H       -1.57922809       4.52513460       3.79110311
H       -0.17299355       3.10320498       2.36505703
H       -8.67960949       6.11383256       7.35253876
H       -6.05469524       8.93342404       5.14701009
H       -6.03663555      11.23863214       5.97925818
H       -7.31216679       9.86576232       9.85891200
H       -7.29069390       7.54647083       9.05133475
C       -6.67571324      12.05860311       8.45280719
C       -6.67637518      13.19542263       8.85539501
Br      -6.67744550      15.03356363       9.50634546
C        1.79140208      -1.79140208       1.79140208
C        2.91630526      -2.40804401       1.24748336
C        3.72603327      -3.20985836       2.05683888
C        3.40821130      -3.40255873       3.40951391
C        2.27288995      -2.77731462       3.94535752
C        1.46655787      -1.97108011       3.13532519
C        4.29813847      -4.25698117       4.23765669
N        5.50576557      -4.55434766       3.87755167
C        6.15928353      -5.35799215       4.73895516
S        7.76667013      -5.83410759       4.45599640
C        7.79193284      -6.77799475       5.87951936
C        6.59714923      -6.73236454       6.57927170
C        6.43822198      -7.51247006       7.80667547
C        5.30789329      -8.31731490       8.00025900
C        5.16370052      -9.07726898       9.16587393
C        6.16086771      -9.05005554      10.13731159
C        7.29828811      -8.26726397       9.95661553
C        7.43312650      -7.49748142       8.79710566
C        5.65182397      -5.87954414       5.90319298
C        4.29783387      -5.49051235       6.24329720
O        3.72526593      -5.85800506       7.26263563
O        3.65236449      -4.66749147       5.35821050
H        3.17383282      -2.27090325       0.20002248
H        4.60403890      -3.68459591       1.62189465
H        2.00545947      -2.89731531       4.99269101
H        0.59185367      -1.48672643       3.56267545
H        8.68922495      -7.33237557       6.12438029
H        4.52111808      -8.36285157       7.25115972
H        4.27111865      -9.68146674       9.30194049
H        8.08156919      -8.24551019      10.70976173
H        8.32437136      -6.88376019       8.68036794
C        6.01567505      -9.83687722      11.33457127
C        5.89407619     -10.49584037      12.33727625
Br       5.69746113     -11.56132805      13.95856541
C       -0.00445707       0.01189536      -1.78238275
H       -0.66409135       0.67374010      -2.43557963
H        0.65740317      -0.63156657      -2.45157240
C       -0.90989263      -0.90692880      -0.91072765
C        0.90977584       0.90977584      -0.90977584
C       -0.00465871       1.77757030       0.00794375
H       -0.66225468       2.44313916      -0.64384735
H        0.64322798       2.43503045       0.67728295
C       -1.78241447       0.00034974      -0.00472694
H       -2.45427497      -0.65498947       0.64260836
H       -2.43311707       0.67328779      -0.65473579
C       -0.91132561       0.90220522       0.91563759
C       -0.01476271      -0.02253852       1.78660255
H       -0.67934791      -0.69751639       2.42135241
H        0.63392994       0.61504881       2.47327442
C        0.01484550      -1.77751727      -0.01636693
H        0.67870853      -2.42144646      -0.68295456
H       -0.62264859      -2.45592969       0.64226336
C        1.78714474       0.01002794       0.00389507
H        2.44202412       0.67113390       0.66197326
H        2.45385902      -0.65136977      -0.64189061
C        0.91606151      -0.90478549       0.90901405
