170
Properties=species:S:1:pos:R:3 pbc="F F F"
C        1.79161508       1.79161508      -1.79161508
C        3.15777530       1.88489624      -1.53242040
C        3.96548468       2.69651962      -2.33505304
C        3.41304810       3.42332757      -3.40180636
C        2.03158446       3.30801372      -3.64833280
C        1.22457315       2.49773009      -2.84788368
C        4.28817180       4.31729341      -4.25437748
H        5.32856796       4.30844317      -3.91177767
N        3.83260936       5.68399096      -4.21079289
C        3.48975650       6.13000009      -5.47883952
S        3.08981671       7.69884564      -5.81306838
N        3.57388983       5.04996812      -6.34516288
C        4.05662148       5.05621876      -7.72524349
H        4.49506838       6.02742356      -7.97999400
N        5.13274095       4.09623184      -7.71745496
C        5.26140936       3.50709405      -6.46721250
S        6.48407076       2.46857537      -6.07025848
N        4.22174869       3.96779475      -5.67328654
C        2.95231849       4.68535777      -8.69541120
C        2.19084085       5.69607859      -9.30666305
C        1.14717246       5.37592339     -10.18069352
C        0.85133470       4.04184005     -10.44874806
C        1.58249802       3.02376817      -9.84359458
C        2.62054187       3.34474746      -8.96645852
H        3.60270910       1.33090130      -0.71000479
H        5.03063872       2.75342447      -2.11910200
H        1.57544420       3.85581466      -4.47212792
H        0.16040678       2.42780817      -3.05782513
H        3.87621238       6.28102599      -3.39866754
H        5.78408193       3.95310022      -8.47583889
H        2.39681775       6.74475201      -9.09965309
H        0.56888312       6.17390152     -10.64051604
H        1.35034433       1.97999625     -10.03994352
H        3.16697708       2.53334808      -8.48724198
C       -0.22156959       3.71215890     -11.35084934
C       -1.12012694       3.43605094     -12.10635916
Br      -2.57301817       2.98960773     -13.32795464
C       -1.79161508      -1.79161508      -1.79161508
C       -2.22008883      -1.32284650      -3.03215660
C       -3.03244968      -2.12651875      -3.83808890
C       -3.42489736      -3.40445468      -3.40882999
C       -2.97419239      -3.85900664      -2.15473195
C       -2.16288541      -3.05759744      -1.34970408
C       -4.32208225      -4.26195650      -4.27580395
H       -4.59711647      -3.74829750      -5.20337483
N       -5.54499420      -4.59351267      -3.58888634
C       -5.67733392      -5.96776532      -3.45349687
S       -7.04009926      -6.69596060      -2.86567087
N       -4.50568726      -6.55342057      -3.90991300
C       -4.37313671      -7.79598497      -4.66896205
H       -5.35568360      -8.17234239      -4.97445995
N       -3.68325272      -7.39349285      -5.86968218
C       -3.36428130      -6.04320242      -5.82823220
S       -2.69871514      -5.22422760      -7.09996188
N       -3.72300021      -5.56181574      -4.57801402
C       -3.60941987      -8.84227403      -3.88139355
C       -4.30969944      -9.78023012      -3.10365293
C       -3.62459253     -10.73439946      -2.34479738
C       -2.23226810     -10.75738810      -2.35226661
C       -1.51734600      -9.82903304      -3.10348173
C       -2.20258195      -8.87304405      -3.85612186
H       -1.92770771      -0.33564026      -3.38026723
H       -3.35374819      -1.74431524      -4.80510176
H       -3.25797395      -4.84817505      -1.79723777
H       -1.83034726      -3.43105855      -0.38463427
H       -6.27050720      -3.93379490      -3.35160382
H       -3.55249835      -7.97707766      -6.68344504
H       -5.39779950      -9.77037561      -3.07304774
H       -4.18638826     -11.44903216      -1.74788025
H       -0.43020521      -9.83429148      -3.10578740
H       -1.62445507      -8.14248672      -4.42062535
C       -1.52680433     -11.74161271      -1.57302161
C       -0.93597842     -12.56590083      -0.92040392
Br       0.01933710     -13.89870499       0.13482369
C       -1.79161508       1.79161508       1.79161508
C       -3.01648540       2.24923226       1.30937427
C       -3.82227011       3.06162947       2.11315776
C       -3.40848300       3.42496667       3.40473235
C       -2.17019150       2.94513196       3.87260752
C       -1.36533208       2.13376561       3.07108924
C       -4.27478310       4.32230297       4.26275664
H       -5.18859653       4.62190054       3.73829173
N       -3.57308764       5.52743515       4.62687041
C       -3.45914019       5.63416654       6.00528938
S       -2.86096559       6.97410825       6.76665688
N       -3.94531266       4.46080802       6.56290014
C       -4.72775778       4.32033993       7.78998602
H       -5.02302468       5.30149145       8.17796981
N       -5.93287161       3.65811896       7.35543719
C       -5.87359952       3.36136284       6.00075356
S       -7.14212640       2.73171755       5.14906066
N       -4.60939757       3.70661140       5.54682101
C       -3.97133299       3.52560274       8.83615173
C       -3.19811113       4.19643706       9.79903430
C       -2.46747682       3.48233875      10.75397380
C       -2.49888573       2.09015922      10.75287786
C       -3.24600260       1.40406795       9.79979023
C       -3.97038981       2.11821911       8.84313894
H       -3.35245686       1.97961984       0.31153850
H       -4.77699301       3.40593325       1.72023893
H       -1.82501841       3.20595273       4.87241563
H       -0.41259134       1.77840673       3.45504201
H       -3.31225576       6.25981201       3.98383814
H       -6.75864808       3.53153212       7.92284085
H       -3.14894384       5.28386065       9.80841836
H       -1.87352607       4.02161692      11.48815768
H       -3.26678331       0.31719425       9.78630652
H       -4.53193859       1.56232626       8.09330230
C       -1.74872919       1.35485093      11.73785852
C       -1.12047309       0.73903025      12.56277982
Br      -0.10463612      -0.25669972      13.89660780
C        1.79161508      -1.79161508       1.79161508
C        1.33583938      -3.04585416       2.19339839
C        2.13941262      -3.85192259       3.00572213
C        3.40420691      -3.40915050       3.42482462
C        3.84590051      -2.14122866       3.00080182
C        3.04458766      -1.33604598       2.18955329
C        4.26124317      -4.27674638       4.32185315
H        3.75804109      -5.21637262       4.57437509
N        4.56297395      -3.60409843       5.56032083
C        5.93271246      -3.44954090       5.71634274
S        6.63037857      -2.87201769       7.09933446
N        6.54354975      -3.87834527       4.54712580
C        7.79980439      -4.61588089       4.42239845
H        8.16565920      -4.93093172       5.40589503
N        7.42698240      -5.81168953       3.70775582
C        6.08130884      -5.78614379       3.36826329
S        5.29284604      -7.05977721       2.67028137
N        5.57481747      -4.54932825       3.73868426
C        8.84527720      -3.80028694       3.68752332
C        9.75992537      -3.01922562       4.41443151
C       10.71253515      -2.23500084       3.75625338
C       10.75719838      -2.22021026       2.36451418
C        9.85195841      -2.97437352       1.62352885
C        8.89742965      -3.75241459       2.28190361
H        0.35887770      -3.40456936       1.88016813
H        1.76753795      -4.82967313       3.30595412
H        4.82480943      -1.77296654       3.30561080
H        3.40792670      -0.36019661       1.87791678
H        3.88844847      -3.38850336       6.27895410
H        8.02525089      -6.61415938       3.57361078
H        9.73274059      -3.00589687       5.50258539
H       11.40890347      -1.63599910       4.33839811
H        9.87408820      -2.95949591       0.53669997
H        8.18488362      -4.31900032       1.68368320
C       11.73985064      -1.41481531       1.68677270
C       12.56282191      -0.74029704       1.11916421
Br      13.89349685       0.35034195       0.20138930
C       -0.00445707       0.01189536      -1.78238275
H       -0.66409135       0.67374010      -2.43557963
H        0.65740317      -0.63156657      -2.45157240
C       -0.90989263      -0.90692880      -0.91072765
C        0.90977584       0.90977584      -0.90977584
C       -0.00465871       1.77757030       0.00794375
H       -0.66225468       2.44313916      -0.64384735
H        0.64322798       2.43503045       0.67728295
C       -1.78241447       0.00034974      -0.00472694
H       -2.45427497      -0.65498947       0.64260836
H       -2.43311707       0.67328779      -0.65473579
C       -0.91132561       0.90220522       0.91563759
C       -0.01476271      -0.02253852       1.78660255
H       -0.67934791      -0.69751639       2.42135241
H        0.63392994       0.61504881       2.47327442
C        0.01484550      -1.77751727      -0.01636693
H        0.67870853      -2.42144646      -0.68295456
H       -0.62264859      -2.45592969       0.64226336
C        1.78714474       0.01002794       0.00389507
H        2.44202412       0.67113390       0.66197326
H        2.45385902      -0.65136977      -0.64189061
C        0.91606151      -0.90478549       0.90901405
