141
Properties=species:S:1:pos:R:3 pbc="F F F"
C        0.00000000       0.00000000       0.00000000
C        0.88171105       0.88171105      -0.88171105
C        2.24787127       0.97499221      -0.62251637
C        3.05558066       1.78661559      -1.42514901
C        2.50314407       2.51342354      -2.49190233
C        1.12168044       2.39810970      -2.73842878
C        0.31466913       1.58782607      -1.93797966
C        3.37826778       3.40738939      -3.34447346
H        4.41866394       3.39853915      -3.00187364
N        2.92270533       4.77408693      -3.30088886
C        2.57985248       5.22009606      -4.56893549
S        2.17991269       6.78894161      -4.90316435
N        2.66398580       4.14006409      -5.43525886
C        3.14671746       4.14631473      -6.81533946
H        3.58516436       5.11751954      -7.07008997
N        4.22283692       3.18632782      -6.80755094
C        4.35150534       2.59719003      -5.55730848
S        5.57416674       1.55867135      -5.16035446
N        3.31184466       3.05789073      -4.76338252
C        2.04241446       3.77545375      -7.78550717
C        1.28093683       4.78617457      -8.39675902
C        0.23726844       4.46601937      -9.27078950
C       -0.05856932       3.13193603      -9.53884404
Br      -1.46661614       2.69927256     -10.72273420
C        0.67259400       2.11386415      -8.93369056
C        1.71063785       2.43484344      -8.05655450
H        2.69280508       0.42099728       0.19989923
H        4.12073469       1.84352045      -1.20919798
H        0.66554018       2.94591063      -3.56222389
H       -0.74949725       1.51790415      -2.14792111
H        2.96630836       5.37112197      -2.48876352
H        4.87417791       3.04319620      -7.56593487
H        1.48691373       5.83484798      -8.18974907
H       -0.34102091       5.26399750      -9.73061201
H        0.44044030       1.07009222      -9.13003949
H        2.25707306       1.62344406      -7.57733796
C       -0.88171105      -0.88171105      -0.88171105
C       -1.90565360      -0.30718784      -1.63253842
C       -2.71776599      -1.11387752      -2.43570176
C       -2.51401222      -2.50191653      -2.49254120
C       -1.46922278      -3.05866361      -1.73033252
C       -0.65775946      -2.25411229      -0.92860311
C       -3.40970452      -3.37344011      -3.34698600
H       -4.18237540      -2.78415105      -3.85255028
N       -4.08093630      -4.36811392      -2.54863092
C       -3.74942260      -5.64660874      -2.97285270
S       -4.47074093      -7.01399490      -2.38728282
N       -2.76600919      -5.52926594      -3.94403362
C       -2.61983141      -6.32985253      -5.15868771
H       -3.48886406      -6.98135630      -5.30255350
N       -2.64432275      -5.35306567      -6.21932726
C       -2.73377498      -4.06668837      -5.70554049
S       -2.92688137      -2.72107477      -6.64523640
N       -2.65294916      -4.15625854      -4.32391021
C       -1.33425208      -7.13298737      -5.13613593
C       -1.34531200      -8.45607603      -4.66248240
C       -0.16562205      -9.20477259      -4.60368266
C        1.03782805      -8.63652880      -5.01350999
Br       2.63145906      -9.64941672      -4.93743296
C        1.07538681      -7.32305419      -5.47248132
C       -0.10231322      -6.57460108      -5.52512149
H       -2.07929660       0.76520239      -1.59980891
H       -3.50974010      -0.64621118      -3.01750184
H       -1.28366371      -4.13177948      -1.75823151
H        0.14061264      -2.70896370      -0.34797695
H       -4.79297491      -4.17190304      -1.86131590
H       -2.70906201      -5.57093905      -7.20330792
H       -2.27308998      -8.91415294      -4.32426785
H       -0.19656607     -10.22595906      -4.23106347
H        2.01294789      -6.86942185      -5.78409806
H       -0.04815493      -5.54198159      -5.86771856
C       -0.88171105       0.88171105       0.88171105
C       -0.37773692       2.07740753       1.39023541
C       -1.18172264       2.88293703       2.20268559
C       -2.49533133       2.49798034       2.51515828
C       -2.98467403       1.28909286       1.98445203
C       -2.18295553       0.48452614       1.17299319
C       -3.35430377       3.36311652       3.41271034
H       -2.81250447       4.25140269       3.75516956
N       -3.77526612       2.63763002       4.58478499
C       -5.15904229       2.56242701       4.64741473
S       -5.97794462       1.94844452       5.94562951
N       -5.66628548       3.09958750       3.47343577
C       -6.86499909       3.92266224       3.32071033
H       -7.27369070       4.20056119       4.29852197
N       -6.37531099       5.13301057       2.70839412
C       -5.01458497       5.04145854       2.44996034
S       -4.10724699       6.30156047       1.88438509
N       -4.60871496       3.75446830       2.76993464
C       -7.90839455       3.22200481       2.47297602
C       -8.91349986       2.45892445       3.09144612
C       -9.86743612       1.77889688       2.32774431
C       -9.82321729       1.85120176       0.93779169
Br     -11.11443400       0.93517079      -0.09421418
C       -8.82820371       2.58894619       0.30299881
C       -7.87274257       3.26267879       1.06661442
H        0.63726484       2.39076451       1.16040345
H       -0.77150360       3.81476836       2.58718116
H       -4.00165058       0.96686089       2.20516323
H       -2.58382309      -0.44527133       0.77777625
H       -3.16268120       2.33599316       5.32751949
H       -6.91407718       5.97897327       2.59025852
H       -8.95728407       2.37809404       4.17613267
H      -10.63478506       1.19186560       2.82693794
H       -8.78117529       2.64127491      -0.78187819
H       -7.09020446       3.81735135       0.55029926
C        0.88171105      -0.88171105       0.88171105
C        1.70687242      -1.84095354       0.29755390
C        2.51030587      -2.65321644       1.10382295
C        2.49314707      -2.51441758       2.50090530
C        1.65644159      -1.53404014       3.06773718
C        0.85437163      -0.72246212       2.26364110
C        3.34879876      -3.41084356       3.37048831
H        3.91777562      -4.12997389       2.77132721
N        2.53881100      -4.16549536       4.29337477
C        2.88708762      -3.87698076       5.60481565
S        2.27464143      -4.68981635       6.90756087
N        3.81395508      -2.84529900       5.58005467
C        4.98190122      -2.68214012       6.44433032
H        5.13742070      -3.57409952       7.06125365
N        6.08640506      -2.61042432       5.51988629
C        5.63742192      -2.66116822       4.20741370
S        6.64641695      -2.74543343       2.90134217
N        4.25084038      -2.64857714       4.23370039
C        4.86019176      -1.43931148       7.30387214
C        4.32710906      -1.53617245       8.60058891
C        4.17686390      -0.39803585       9.39917755
C        4.55378849       0.84910441       8.90752666
Br       4.35410295       2.38668452       9.98797219
C        5.07049699       0.97126292       7.62091464
C        5.21448890      -0.16518406       6.82236283
H        1.73207304      -1.96386067      -0.78203059
H        3.15067216      -3.39397202       0.62880894
H        1.62581158      -1.39950144       4.14836169
H        0.21545830       0.02535099       2.72622069
H        1.89651368      -4.89815421       4.03152596
H        7.06126820      -2.64017192       5.78186885
H        4.01338764      -2.49962662       8.99849652
H        3.75947539      -0.49547764      10.39863557
H        5.35700199       1.94303667       7.22660670
H        5.60132714      -0.04541169       5.81111625
