162
Properties=species:S:1:pos:R:3 pbc="F F F"
C        1.79161508       1.79161508      -1.79161508
C        3.15777530       1.88489624      -1.53242040
C        3.96548468       2.69651962      -2.33505304
C        3.41304810       3.42332757      -3.40180636
C        2.03158446       3.30801372      -3.64833280
C        1.22457315       2.49773009      -2.84788368
C        4.28817180       4.31729341      -4.25437748
H        5.32856796       4.30844317      -3.91177767
N        3.83260936       5.68399096      -4.21079289
C        3.48975650       6.13000009      -5.47883952
S        3.08981671       7.69884564      -5.81306838
N        3.57388983       5.04996812      -6.34516288
C        4.05662148       5.05621876      -7.72524349
H        4.49506838       6.02742356      -7.97999400
N        5.13274095       4.09623184      -7.71745496
C        5.26140936       3.50709405      -6.46721250
S        6.48407076       2.46857537      -6.07025848
N        4.22174869       3.96779475      -5.67328654
C        2.95231849       4.68535777      -8.69541120
C        2.19084085       5.69607859      -9.30666305
C        1.14717246       5.37592339     -10.18069352
C        0.85133470       4.04184005     -10.44874806
Br      -0.55671212       3.60917658     -11.63263822
C        1.58249802       3.02376817      -9.84359458
C        2.62054187       3.34474746      -8.96645852
H        3.60270910       1.33090130      -0.71000479
H        5.03063872       2.75342447      -2.11910200
H        1.57544420       3.85581466      -4.47212792
H        0.16040678       2.42780817      -3.05782513
H        3.87621238       6.28102599      -3.39866754
H        5.78408193       3.95310022      -8.47583889
H        2.39681775       6.74475201      -9.09965309
H        0.56888312       6.17390152     -10.64051604
H        1.35034433       1.97999625     -10.03994352
H        3.16697708       2.53334808      -8.48724198
C       -1.79161508      -1.79161508      -1.79161508
C       -1.51677316      -1.90514188      -3.15317690
C       -2.32675303      -2.70725882      -3.96304549
C       -3.41958736      -3.40032109      -3.41827357
C       -3.67354363      -3.27539395      -2.03899340
C       -2.86527258      -2.47523096      -1.22968339
C       -4.30616119      -4.25029155      -4.30338997
H       -3.98196227      -4.21763276      -5.34919377
N       -5.67233177      -3.79293599      -4.26212544
C       -6.51276771      -4.79222175      -3.79360664
S       -8.16067842      -4.66132150      -3.77973080
N       -5.72106627      -5.85747382      -3.39048073
C       -6.00434266      -7.28285679      -3.55088429
H       -6.89160494      -7.43566768      -4.17521332
N       -4.87315310      -7.77641526      -4.29685940
C       -3.94905307      -6.76528852      -4.52137433
S       -2.60583275      -6.95112425      -5.46594762
N       -4.38357031      -5.63653193      -3.84272774
C       -6.15908577      -7.96705684      -2.20694485
C       -7.43709017      -8.11508031      -1.64141201
C       -7.59997116      -8.71506673      -0.38875148
C       -6.48620028      -9.16889876       0.31317622
Br      -6.70655919      -9.98292846       2.00438497
C       -5.20943931      -9.01980594      -0.22061553
C       -5.04767285      -8.41518328      -1.46889173
H       -0.67614060      -1.37471748      -3.59275711
H       -2.09381391      -2.78614421      -5.02320707
H       -4.51113587      -3.80534308      -1.58690783
H       -3.08414327      -2.39375568      -0.16814113
H       -5.99899214      -2.91651971      -4.64039406
H       -4.80922279      -8.69725905      -4.70653921
H       -8.31926012      -7.75448636      -2.16747638
H       -8.59782316      -8.81689963       0.03142212
H       -4.33450066      -9.36215088       0.32636745
H       -4.03867885      -8.28925201      -1.85963629
C       -1.79161508       1.79161508       1.79161508
C       -2.97443417       1.27924149       2.32141627
C       -3.78595187       2.08713309       3.12397238
C       -3.42237643       3.41468801       3.40111758
C       -2.21966868       3.90806153       2.86020077
C       -1.40872697       3.10218485       2.05927510
C       -4.31522576       4.29173676       4.25288018
H       -5.21840490       3.75965161       4.57073228
N       -4.73883198       5.46221125       3.52634996
C       -4.31521517       6.61872954       4.16465139
S       -4.77204259       8.13608294       3.69360520
N       -3.50101451       6.24452811       5.22347820
C       -3.43017579       6.86017389       6.54773405
H       -4.22360762       7.60512918       6.67374913
N       -3.72478144       5.77317953       7.44846678
C       -3.89895626       4.58577764       6.75098202
S       -4.38765350       3.17527993       7.45997120
N       -3.61326257       4.83301762       5.41654979
C       -2.06504098       7.47015447       6.79789200
C       -1.84552082       8.82980470       6.51825697
C       -0.58599637       9.40575583       6.71203718
C        0.46795228       8.62692204       7.18295305
Br       2.16913983       9.40600915       7.44823337
C        0.27772245       7.27478423       7.45279900
C       -0.97894696       6.69955196       7.25324893
H       -3.27284649       0.25449186       2.11627684
H       -4.70383911       1.66781882       3.53150726
H       -1.90877982       4.93243679       3.06217016
H       -0.48630446       3.50786284       1.65187278
H       -5.36532997       5.45501555       2.73556040
H       -3.90050149       5.87477037       8.43774919
H       -2.65242630       9.45262733       6.13616922
H       -0.43758042      10.45919789       6.48652236
H        1.09854478       6.65823056       7.81059831
H       -1.10173119       5.63530852       7.45052744
C        1.79161508      -1.79161508       1.79161508
C        1.20674250      -2.74280772       2.62554171
C        2.01227566      -3.54679046       3.43799122
C        3.40902985      -3.40429921       3.42485296
C        3.97739595      -2.44118468       2.56935035
C        3.17408493      -1.63843997       1.75766203
C        4.27520848      -4.26241971       4.32221451
H        3.67229266      -4.93930249       4.93719365
N        5.05882848      -3.45006755       5.21849717
C        6.41493376      -3.66410965       5.01955269
S        7.58839205      -3.02222930       5.99110938
N        6.55573245      -4.49527879       3.91800958
C        7.53005793      -5.57038301       3.73764279
H        8.08398273      -5.75349301       4.66501020
N        6.71553793      -6.73551482       3.49537499
C        5.36878978      -6.40059553       3.46633061
S        4.15432395      -7.51559350       3.35298717
N        5.27356338      -5.02075872       3.56850788
C        8.47338024      -5.27023905       2.58946816
C        9.70587335      -4.64446561       2.84324353
C       10.57768015      -4.33016809       1.79594114
C       10.22388667      -4.63417736       0.48385878
Br      11.40352611      -4.21271129      -0.93113471
C        9.00203070      -5.24064360       0.20718648
C        8.12984562      -5.54858085       1.25332139
H        0.12719695      -2.86615300       2.65026524
H        1.53715950      -4.28639667       4.07960902
H        5.05843751      -2.31133853       2.53361074
H        3.63755631      -0.90066112       1.10782265
H        4.68282353      -2.89825980       5.97482258
H        7.05923961      -7.68475291       3.46902852
H        9.99516317      -4.38576975       3.86028993
H       11.52521641      -3.84339453       2.01468973
H        8.71458736      -5.47129328      -0.81559655
H        7.16971962      -6.00400907       1.01383845
C       -0.00445707       0.01189536      -1.78238275
H       -0.66409135       0.67374010      -2.43557963
H        0.65740317      -0.63156657      -2.45157240
C       -0.90989263      -0.90692880      -0.91072765
C        0.90977584       0.90977584      -0.90977584
C       -0.00465871       1.77757030       0.00794375
H       -0.66225468       2.44313916      -0.64384735
H        0.64322798       2.43503045       0.67728295
C       -1.78241447       0.00034974      -0.00472694
H       -2.45427497      -0.65498947       0.64260836
H       -2.43311707       0.67328779      -0.65473579
C       -0.91132561       0.90220522       0.91563759
C       -0.01476271      -0.02253852       1.78660255
H       -0.67934791      -0.69751639       2.42135241
H        0.63392994       0.61504881       2.47327442
C        0.01484550      -1.77751727      -0.01636693
H        0.67870853      -2.42144646      -0.68295456
H       -0.62264859      -2.45592969       0.64226336
C        1.78714474       0.01002794       0.00389507
H        2.44202412       0.67113390       0.66197326
H        2.45385902      -0.65136977      -0.64189061
C        0.91606151      -0.90478549       0.90901405
