122
Properties=species:S:1:pos:R:3 pbc="F F F"
C        1.78946139       1.78946139      -1.78946139
C        2.99639872       2.30755007      -1.28688677
C        3.85112151       3.13667696      -2.04962941
C        3.57171461       3.51536915      -3.37769496
S        4.62349725       4.58571691      -4.31227913
S        4.04128826       6.43921681      -3.62589810
C        2.51728003       6.66690237      -4.49192728
C        2.45428010       7.09205307      -5.83358963
C        1.23972828       7.21899226      -6.54645821
C       -0.01289182       6.93014036      -5.97600623
Br      -1.58441836       7.09954675      -7.00452784
C       -0.02209234       6.50492368      -4.62035229
N       -1.09667259       6.17298033      -3.88479922
S       -0.54075932       5.73600653      -2.38731964
N        1.08880939       5.95534439      -2.58773373
C        1.27710390       6.37615804      -3.85380795
C        2.36545879       3.01108758      -3.94600477
N        1.88949561       3.23760250      -5.18534111
S        0.44138698       2.44183809      -5.30102181
N        0.34585251       1.75494595      -3.79747524
C        1.44765825       2.12969420      -3.12432860
H        3.29097709       2.07209366      -0.26348533
H        4.76121635       3.50754567      -1.57565677
H        3.38264501       7.31819079      -6.35996548
H        1.28758714       7.54367219      -7.58613656
C       -1.78946139      -1.78946139      -1.78946139
C       -1.62091644      -1.78429843      -3.18562069
C       -2.41114930      -2.57036237      -4.05591621
C       -3.43372777      -3.42759474      -3.60345621
S       -4.44581621      -4.37653341      -4.69914367
S       -5.83620675      -2.97680694      -5.29338948
C       -6.88977599      -2.91071427      -3.87561943
C       -7.89235391      -3.86703480      -3.62053409
C       -8.69741451      -3.84955680      -2.45820744
C       -8.56543054      -2.87385244      -1.45397180
Br      -9.66129022      -2.93777491       0.07940890
C       -7.57788983      -1.87199282      -1.65330099
N       -7.27907889      -0.85590055      -0.82612752
S       -6.04548432      -0.00555549      -1.53152704
N       -5.83265608      -0.87223023      -2.92700119
C       -6.72067148      -1.88526642      -2.90113199
C       -3.64443420      -3.48349260      -2.19462433
N       -4.55798653      -4.22034249      -1.53411020
S       -4.38654853      -3.87434450       0.07664615
N       -3.13820196      -2.78768602       0.02761429
C       -2.80204514      -2.63454560      -1.26509030
H       -0.85590934      -1.14407181      -3.62657493
H       -2.22295787      -2.49355981      -5.12790111
H       -8.04888600      -4.67252631      -4.33938897
H       -9.44134815      -4.63751565      -2.33853209
C       -1.78946139       1.78946139       1.78946139
C       -2.37336004       2.95516627       1.26230926
C       -3.19105737       3.81705011       2.02932040
C       -3.49433361       3.58489418       3.38555093
S       -4.48330631       4.68766140       4.35052558
S       -3.10629095       6.12949359       4.87061863
C       -2.21244554       5.30816735       6.15549680
C       -2.68516350       5.21536470       7.47939459
C       -2.00053164       4.50929314       8.49535397
C       -0.78610085       3.83658357       8.27057036
Br       0.04958711       2.89478701       9.67445632
C       -0.24752722       3.89840550       6.95725092
N        0.88861145       3.32768433       6.52203409
S        1.03052032       3.69872815       4.91435902
N       -0.33305062       4.61139114       4.68744574
C       -0.97578044       4.66064669       5.87064275
C       -2.93882339       2.41073506       3.97299268
N       -3.08455728       1.98538428       5.24249765
S       -2.19959240       0.59316315       5.39149132
N       -1.59823277       0.44403930       3.85600163
C       -2.05676635       1.49335033       3.15156436
H       -2.18727577       3.21881109       0.22046921
H       -3.59107678       4.70888091       1.54446109
H       -3.63204671       5.69215505       7.73659953
H       -2.44738412       4.48060623       9.48940554
C        1.78946139      -1.78946139       1.78946139
C        2.30209898      -1.28909649       2.99964011
C        3.13093246      -2.05192152       3.85457391
C        3.51475026      -3.37787626       3.57215220
S        4.58472364      -4.31240254       4.62436711
S        6.43786619      -3.61827063       4.05026634
C        6.67316482      -4.47870055       2.52424432
C        7.10279533      -5.81879504       2.45833243
C        7.23587472      -6.52737457       1.24192946
C        6.94919104      -5.95384835      -0.00978462
Br       7.12688112      -6.97680282      -1.58402771
C        6.51967966      -4.59953212      -0.01602815
N        6.18881120      -3.86161208      -1.08931632
S        5.74529146      -2.36731334      -0.53003795
N        5.96008067      -2.57223018       1.09957666
C        6.38433307      -3.83755343       1.28518339
C        3.01612735      -3.94393392       2.36248986
N        3.24811171      -5.18101711       1.88331040
S        2.45733350      -5.29460576       0.43230762
N        1.76595190      -3.79295556       0.33936624
C        2.13504050      -3.12214090       1.44449964
H        2.06243993      -0.26739534       3.29672081
H        3.49738762      -1.57967909       4.76735207
H        7.32765673      -6.34740989       3.38573467
H        7.56371850      -7.56616183       1.28751556
C       -0.00445707       0.01189536      -1.78238275
H       -0.66409135       0.67374010      -2.43557963
H        0.65740317      -0.63156657      -2.45157240
C       -0.90989263      -0.90692880      -0.91072765
C        0.90977584       0.90977584      -0.90977584
C       -0.00465871       1.77757030       0.00794375
H       -0.66225468       2.44313916      -0.64384735
H        0.64322798       2.43503045       0.67728295
C       -1.78241447       0.00034974      -0.00472694
H       -2.45427497      -0.65498947       0.64260836
H       -2.43311707       0.67328779      -0.65473579
C       -0.91132561       0.90220522       0.91563759
C       -0.01476271      -0.02253852       1.78660255
H       -0.67934791      -0.69751639       2.42135241
H        0.63392994       0.61504881       2.47327442
C        0.01484550      -1.77751727      -0.01636693
H        0.67870853      -2.42144646      -0.68295456
H       -0.62264859      -2.45592969       0.64226336
C        1.78714474       0.01002794       0.00389507
H        2.44202412       0.67113390       0.66197326
H        2.45385902      -0.65136977      -0.64189061
C        0.91606151      -0.90478549       0.90901405
