130
Properties=species:S:1:pos:R:3 pbc="F F F"
C        1.78946139       1.78946139      -1.78946139
C        2.99639872       2.30755007      -1.28688677
C        3.85112151       3.13667696      -2.04962941
C        3.57171461       3.51536915      -3.37769496
S        4.62349725       4.58571691      -4.31227913
S        4.04128826       6.43921681      -3.62589810
C        2.51728003       6.66690237      -4.49192728
C        2.45428010       7.09205307      -5.83358963
C        1.23972828       7.21899226      -6.54645821
C       -0.01289182       6.93014036      -5.97600623
C       -0.02209234       6.50492368      -4.62035229
N       -1.09667259       6.17298033      -3.88479922
S       -0.54075932       5.73600653      -2.38731964
N        1.08880939       5.95534439      -2.58773373
C        1.27710390       6.37615804      -3.85380795
C        2.36545879       3.01108758      -3.94600477
N        1.88949561       3.23760250      -5.18534111
S        0.44138698       2.44183809      -5.30102181
N        0.34585251       1.75494595      -3.79747524
C        1.44765825       2.12969420      -3.12432860
H        3.29097709       2.07209366      -0.26348533
H        4.76121635       3.50754567      -1.57565677
H        3.38264501       7.31819079      -6.35996548
H        1.28758714       7.54367219      -7.58613656
C       -1.21291052       7.05949919      -6.76138600
C       -2.21792619       7.16783721      -7.41914157
Br      -3.84295152       7.34301063      -8.48267668
C       -1.78946139      -1.78946139      -1.78946139
C       -2.28396583      -1.29663652      -3.01023322
C       -3.11182159      -2.05974683      -3.86585945
C       -3.51268833      -3.37850275      -3.57358764
S       -4.58140674      -4.31285515      -4.62723140
S       -6.43299912      -3.59316719      -4.08023686
C       -6.69350767      -4.43477500      -2.54782702
C       -7.13805172      -5.76949153      -2.47237955
C       -7.29147417      -6.46363918      -1.25006540
C       -7.01190261      -5.87987089      -0.00148128
C       -6.56808637      -4.53016474      -0.00493252
N       -6.24070515      -3.78438614       1.06398433
S       -5.77543437      -2.30088161       0.49374914
N       -5.97521417      -2.52086256      -1.13581077
C       -6.41093506      -3.78355072      -1.31258411
C       -3.03289096      -3.93687086      -2.35278931
N       -3.28306784      -5.16626987      -1.86310151
S       -2.50887308      -5.27272796      -0.40264584
N       -1.80256070      -3.77753998      -0.31817301
C       -2.15282414      -3.11467830      -1.43417860
H       -2.03032650      -0.28073752      -3.31549206
H       -3.46359233      -1.59341494      -4.78741151
H       -7.35874621      -6.30555196      -3.39650312
H       -7.62986046      -7.49934162      -1.28819381
C       -7.16855129      -6.64668448       1.20726109
C       -7.29974456      -7.28889085       2.21958283
Br      -7.51187299      -8.32728425       3.85642145
C       -1.78946139       1.78946139       1.78946139
C       -3.10601614       2.08878431       1.39603512
C       -3.96817912       2.90595506       2.16329370
C       -3.58709204       3.49018738       3.38749931
S       -4.65523761       4.54447324       4.32178244
S       -4.41292405       6.34457025       3.34890887
C       -2.84172157       6.86535363       3.96903449
C       -2.67818084       7.47151778       5.23022417
C       -1.41600181       7.83597323       5.75320371
C       -0.21228600       7.62327669       5.05769208
C       -0.30644049       7.02370823       3.77303491
N        0.70837647       6.72534873       2.94413470
S        0.04304914       6.02827902       1.59733697
N       -1.56595060       6.07822249       1.98771441
C       -1.65799992       6.64022261       3.20884736
C       -2.26528729       3.21320813       3.84405570
N       -1.68085493       3.65904674       4.97253755
S       -0.13546048       3.06304073       4.98574567
N       -0.12698315       2.19635381       3.57493674
C       -1.34101022       2.34415338       3.01651744
H       -3.48524672       1.68464948       0.45665988
H       -4.96950913       3.09940608       1.77550357
H       -3.55966628       7.65495056       5.84618444
H       -1.38374375       8.28956263       6.74408951
C        1.04384862       7.99814498       5.65367832
C        2.09586136       8.31209716       6.15281679
Br       3.79687699       8.81973130       6.95988148
C        1.78946139      -1.78946139       1.78946139
C        1.78077628      -1.62407802       3.18598127
C        2.58045665      -2.40208840       4.05488283
C        3.45348226      -3.41049044       3.60080603
S        4.48138523      -4.35169839       4.68840967
S        6.06436083      -3.06473508       4.97730726
C        6.95263063      -3.26164282       3.46183623
C        7.81811013      -4.34576210       3.21605056
C        8.48461659      -4.53685980       1.98370236
C        8.33967905      -3.65915711       0.89441861
C        7.48738588      -2.53736153       1.07843623
N        7.20159423      -1.58301305       0.17649968
S        6.14780532      -0.53203516       0.90272636
N        6.00704814      -1.22350500       2.40133437
C        6.77938816      -2.32757577       2.40010596
C        3.49727972      -3.63205851       2.19321290
N        4.25126470      -4.53022992       1.53094460
S        3.93523302      -4.33189335      -0.08287950
N        2.81678144      -3.11208513      -0.03059287
C        2.64573021      -2.79200553       1.26394530
H        1.13909326      -0.86037822       3.62708460
H        2.52305619      -2.19648112       5.12488147
H        7.97236495      -5.08686182       4.00157452
H        9.12673861      -5.41170051       1.87895676
C        9.02988446      -3.92022358      -0.34213336
C        9.60793149      -4.13886674      -1.37774564
Br      10.54258465      -4.49239425      -3.05224311
C       -0.00445707       0.01189536      -1.78238275
H       -0.66409135       0.67374010      -2.43557963
H        0.65740317      -0.63156657      -2.45157240
C       -0.90989263      -0.90692880      -0.91072765
C        0.90977584       0.90977584      -0.90977584
C       -0.00465871       1.77757030       0.00794375
H       -0.66225468       2.44313916      -0.64384735
H        0.64322798       2.43503045       0.67728295
C       -1.78241447       0.00034974      -0.00472694
H       -2.45427497      -0.65498947       0.64260836
H       -2.43311707       0.67328779      -0.65473579
C       -0.91132561       0.90220522       0.91563759
C       -0.01476271      -0.02253852       1.78660255
H       -0.67934791      -0.69751639       2.42135241
H        0.63392994       0.61504881       2.47327442
C        0.01484550      -1.77751727      -0.01636693
H        0.67870853      -2.42144646      -0.68295456
H       -0.62264859      -2.45592969       0.64226336
C        1.78714474       0.01002794       0.00389507
H        2.44202412       0.67113390       0.66197326
H        2.45385902      -0.65136977      -0.64189061
C        0.91606151      -0.90478549       0.90901405
