101
Properties=species:S:1:pos:R:3 pbc="F F F"
C        0.00000000       0.00000000       0.00000000
C        0.87955737       0.87955737      -0.87955737
C        2.08649470       1.39764605      -0.37698275
C        2.94121748       2.22677294      -1.13972538
C        2.66181058       2.60546513      -2.46779094
S        3.71359322       3.67581288      -3.40237511
S        3.13138423       5.52931279      -2.71599408
C        1.60737601       5.75699835      -3.58202326
C        1.54437608       6.18214904      -4.92368561
C        0.32982425       6.30908824      -5.63655418
C       -0.92279584       6.02023634      -5.06610220
Br      -2.49432239       6.18964273      -6.09462381
C       -0.93199637       5.59501966      -3.71044827
N       -2.00657662       5.26307630      -2.97489520
S       -1.45066335       4.82610250      -1.47741562
N        0.17890536       5.04544037      -1.67782970
C        0.36719988       5.46625401      -2.94390393
C        1.45555476       2.10118355      -3.03610074
N        0.97959158       2.32769848      -4.27543708
S       -0.46851705       1.53193406      -4.39111778
N       -0.56405152       0.84504192      -2.88757122
C        0.53775423       1.21979017      -2.21442457
H        2.38107306       1.16218964       0.64641869
H        3.85131232       2.59764164      -0.66575275
H        2.47274099       6.40828677      -5.45006146
H        0.37768311       6.63376817      -6.67623254
C       -0.87955737      -0.87955737      -0.87955737
C       -2.04362600      -1.46594477      -0.35155273
C       -2.89559153      -2.29872799      -1.11339629
C       -2.65608706      -2.61318147      -2.46579813
S       -3.70234499      -3.68810559      -3.40133063
S       -3.02014286      -5.54177674      -2.81477149
C       -1.52507304      -5.67270493      -3.74861964
C       -1.50035732      -6.04186171      -5.10799169
C       -0.31193875      -6.09088653      -5.87264139
C        0.95065040      -5.77367099      -5.34052211
Br       2.48422327      -5.83808324      -6.43608417
C        0.99858870      -5.40204424      -3.97001602
N        2.08848604      -5.05557993      -3.26430100
S        1.57756127      -4.70091014      -1.72950590
N       -0.04896182      -4.97868968      -1.87452393
C       -0.27221366      -5.35676867      -3.14837548
C       -1.49484565      -2.03802322      -3.05997019
N       -1.06145228      -2.19599001      -4.32528485
S        0.34831497      -1.33771303      -4.46513674
N        0.47821434      -0.70711268      -2.93966328
C       -0.57954701      -1.15279321      -2.23962875
H       -2.30511284      -1.28314282       0.69141166
H       -3.77025220      -2.72486342      -0.61959109
H       -2.43987508      -6.28492992      -5.60628422
H       -0.38949677      -6.37613896      -6.92204809
C       -0.87955737       0.87955737       0.87955737
C       -2.11053451       1.35610308       0.39448591
C       -2.96683214       2.18298801       1.15789565
C       -2.66507474       2.60073740       2.46925450
S       -3.72011984       3.66819842       3.40346295
S       -3.20017323       5.51770988       2.65880799
C       -1.66190673       5.80301217       3.48147871
C       -1.57724341       6.26234344       4.81062388
C       -0.34944743       6.43578886       5.49023039
C        0.89586163       6.16310929       4.89629504
Br       2.48694025       6.39529198       5.88159242
C        0.88302282       5.70509794       3.55139644
N        1.94749994       5.38103695       2.79785787
S        1.36677142       4.89426082       1.32536538
N       -0.26242126       5.07935932       1.56039485
C       -0.43060852       5.52648281       2.82026648
C       -1.43354316       2.13958736       3.01970853
N       -0.93373600       2.40777926       4.24121188
S        0.53581812       1.65000353       4.34034940
N        0.61214147       0.92890930       2.85179379
C       -0.51433381       1.26053127       2.19710389
H       -2.42367246       1.08861774      -0.61544620
H       -3.89684383       2.52021153       0.69765135
H       -2.49800469       6.47903008       5.35405444
H       -0.38034486       6.78464330       6.52269566
C        0.87955737      -0.87955737       0.87955737
C        2.09410308      -1.38477975       0.38224066
C        2.94932181      -2.21321372       1.14518028
C        2.66283892      -2.60400364       2.46822408
S        3.71563983      -3.67346561       3.40267578
S        3.15259874      -5.52604133       2.69805103
C        1.62390679      -5.77167042       3.55082040
C        1.55406748      -6.20739743       4.88874582
C        0.33520145      -6.34881101       5.59145421
C       -0.91525423      -6.06505435       5.01374258
Br      -2.49311925      -6.25399027       6.02907313
C       -0.91750696      -5.62969670       3.66128182
N       -1.98902115      -5.30027069       2.92014535
S       -1.42521817      -4.84785180       1.43022115
N        0.20441255      -5.05648061       1.64128227
C        0.38638708      -5.48541736       2.90555337
C        1.44858639      -2.11307872       3.03117395
N        0.96507435      -2.35250287       4.26514992
S       -0.48982640      -1.56850674       4.37585446
N       -0.57927552      -0.87101883       2.87681831
C        0.53034048      -1.23240893       2.20921956
H        2.39455516      -1.13940377      -0.63711493
H        3.86571614      -2.57366447       0.67532610
H        2.48014313      -6.43054022       5.42040586
H        0.37771882      -6.68096262       6.62900237
