142
Properties=species:S:1:pos:R:3 pbc="F F F"
C        1.79184104       1.79184104      -1.79184104
C        3.09122492       1.38869068      -2.09228343
C        3.89215803       2.19494518      -2.90128209
C        3.38802800       3.39118982      -3.41217788
O        4.23555618       4.13171959      -4.18806064
C        3.56412929       5.09125529      -5.01337454
N        2.60107353       5.90974187      -4.27828132
C        1.56556744       5.12013570      -3.61775342
C        2.09480719       3.81367911      -3.09391615
C        1.29013321       2.99677029      -2.28536532
C        3.19124911       6.97057323      -3.57115273
C        3.55317254       6.85320662      -2.21814010
C        4.15807063       7.90918273      -1.52775490
C        4.41543192       9.11276707      -2.17549177
C        4.06883016       9.26120878      -3.51542804
C        3.46528671       8.20320867      -4.20600316
H        3.48854328       0.45444411      -1.70479417
H        4.90759462       1.88910456      -3.13919238
H        4.33698145       5.70303386      -5.49341410
H        3.05406040       4.55758200      -5.82681872
H        0.79137406       4.89427690      -4.36210874
H        1.07566990       5.68770853      -2.81613662
H        0.27730877       3.30668869      -2.03837921
H        3.39124848       5.92273494      -1.68105496
H        4.43262189       7.78394175      -0.48351429
H        4.88541960       9.93309798      -1.63892631
H        4.26630864      10.20605624      -4.01550029
C        3.10109338       8.44249401      -5.57848476
C        2.79608146       8.64289548      -6.72793810
Br       2.30290299       8.96692771      -8.58650693
C       -1.79184104      -1.79184104      -1.79184104
C       -2.95541669      -1.26675559      -2.35002675
C       -3.75609181      -2.07418596      -3.15810754
C       -3.38520217      -3.39500069      -3.41119284
O       -4.22541923      -4.12644193      -4.20347525
C       -3.60956669      -5.28957164      -4.76962079
N       -2.90146427      -6.10424522      -3.78338724
C       -1.85372245      -5.36934087      -3.08039324
C       -2.23321897      -3.93527005      -2.83391342
C       -1.42711319      -3.11801582      -2.02713981
C       -3.74641719      -6.94581357      -3.04074431
C       -4.26805003      -6.56361524      -1.79285398
C       -5.12429886      -7.40109791      -1.06961149
C       -5.47989259      -8.64595341      -1.57784477
C       -4.98003485      -9.05430335      -2.81112878
C       -4.12475827      -8.21468616      -3.53505411
H       -3.24700548      -0.23657547      -2.16420061
H       -4.66644755      -1.67334877      -3.59609524
H       -4.39694856      -5.85793187      -5.27854899
H       -2.91297639      -4.96922136      -5.55626337
H       -0.95803381      -5.37517156      -3.71455433
H       -1.57687546      -5.86277932      -2.13986028
H       -0.52121889      -3.52101837      -1.58013941
H       -4.03435863      -5.59028305      -1.37039670
H       -5.51664841      -7.07290943      -0.11052010
H       -6.14517287      -9.29649921      -1.01577180
H       -5.25589446     -10.03082540      -3.20114533
C       -3.61782056      -8.71947762      -4.78477397
C       -3.19326022      -9.14224046      -5.83141436
Br      -2.50678207      -9.82581222      -7.52374335
C       -1.79184104       1.79184104       1.79184104
C       -1.72776834       3.17797505       1.66645564
C       -2.53766144       3.97983907       2.47088480
C       -3.41175038       3.39328825       3.38635707
O       -4.16516381       4.24411260       4.14606000
C       -5.31292873       3.62084255       4.73498784
N       -4.99975585       2.36826136       5.42107953
C       -4.38044701       1.37632439       4.54668517
C       -3.46239573       2.00493433       3.53507238
C       -2.65106185       1.20168665       2.71952033
C       -4.47134178       2.55184203       6.70979127
C       -3.08673651       2.58955323       6.94822951
C       -2.57020506       2.79213866       8.23266454
C       -3.42869407       2.96121024       9.31378645
C       -4.80546048       2.92886490       9.11114159
C       -5.32141798       2.72800510       7.82507546
H       -1.05536383       3.64228347       0.95013426
H       -2.49279742       5.06204429       2.38104985
H       -5.76830589       4.35368075       5.41144279
H       -6.05506841       3.43717954       3.94621317
H       -5.18291306       0.86521916       3.99962747
H       -3.85141471       0.60586976       5.12223057
H       -2.68778544       0.11896764       2.81562358
H       -2.38135043       2.48521541       6.12847255
H       -1.49407876       2.82341400       8.38258517
H       -3.02718370       3.11860023      10.31165996
H       -5.47227859       3.05521194       9.96037464
C       -6.75461395       2.66926364       7.69819456
C       -7.95491557       2.62006766       7.59193181
Br      -9.89570178       2.54052193       7.42011393
C        1.79184104      -1.79184104       1.79184104
C        1.46907482      -3.13579840       1.96732581
C        2.27920506      -3.93888063       2.77029962
C        3.40965364      -3.39826630       3.38347577
O        4.14783387      -4.24449164       4.16301090
C        5.48101951      -3.78025582       4.40748378
N        5.53302564      -2.39218218       4.86388891
C        4.92441250      -1.45703778       3.92200628
C        3.72466043      -2.04544581       3.23229620
C        2.91108584      -1.24262068       2.41856231
C        5.25801059      -2.24162315       6.23334133
C        3.96631070      -1.95237193       6.70583662
C        3.69864205      -1.82330129       8.07306492
C        4.71995727      -1.97959328       9.00414022
C        6.01056313      -2.26632820       8.56857564
C        6.27704994      -2.39722047       7.20022813
H        0.59475197      -3.56634480       1.48668479
H        2.03384194      -4.98785234       2.91419728
H        5.93484532      -4.46552226       5.13306184
H        6.06497926      -3.88992096       3.48356090
H        5.67184865      -1.22254213       3.15336891
H        4.66381441      -0.50791465       4.40778599
H        3.14998171      -0.19041384       2.28198112
H        3.13538751      -1.84564808       6.01400279
H        2.68709985      -1.60639335       8.40658473
H        4.51179520      -1.87927561      10.06637307
H        6.80665238      -2.38131939       9.29989341
C        7.64212061      -2.65728166       6.82266987
C        8.78536730      -2.87508291       6.50646483
Br      10.63390050      -3.22724912       5.99518802
C       -0.00445707       0.01189536      -1.78238275
H       -0.66409135       0.67374010      -2.43557963
H        0.65740317      -0.63156657      -2.45157240
C       -0.90989263      -0.90692880      -0.91072765
C        0.90977584       0.90977584      -0.90977584
C       -0.00465871       1.77757030       0.00794375
H       -0.66225468       2.44313916      -0.64384735
H        0.64322798       2.43503045       0.67728295
C       -1.78241447       0.00034974      -0.00472694
H       -2.45427497      -0.65498947       0.64260836
H       -2.43311707       0.67328779      -0.65473579
C       -0.91132561       0.90220522       0.91563759
C       -0.01476271      -0.02253852       1.78660255
H       -0.67934791      -0.69751639       2.42135241
H        0.63392994       0.61504881       2.47327442
C        0.01484550      -1.77751727      -0.01636693
H        0.67870853      -2.42144646      -0.68295456
H       -0.62264859      -2.45592969       0.64226336
C        1.78714474       0.01002794       0.00389507
H        2.44202412       0.67113390       0.66197326
H        2.45385902      -0.65136977      -0.64189061
C        0.91606151      -0.90478549       0.90901405
