114
Properties=species:S:1:pos:R:3 pbc="F F F"
C        1.79163991       1.79163991      -1.79163991
C        1.52032603       1.89949764      -3.15352182
C        2.33005302       2.70234767      -3.95936738
C        3.41888885       3.39809638      -3.40900220
C        3.67352802       3.28377787      -2.03384744
C        2.86266958       2.48166349      -1.22767960
C        4.29964533       4.25821424      -4.28340703
N        5.02506722       3.46845095      -5.27028157
N        4.79324507       3.66251143      -6.58803102
C        5.64054574       2.83180620      -7.19148465
N        5.72858390       2.72145268      -8.52404537
C        6.40114150       2.10415038      -6.25467234
Br       7.70319798       0.81483176      -6.62859456
C        5.99480703       2.53698314      -5.02058978
H        0.68614681       1.36288838      -3.59802864
H        2.11260269       2.77703216      -5.02474500
H        4.50639805       3.81550650      -1.57775815
H        3.07469274       2.40038524      -0.16454887
H        5.05388559       4.79486171      -3.69666366
H        3.69314549       5.00490537      -4.80978619
H        6.17085059       1.91647373      -8.94935760
H        4.99153203       3.14436554      -9.07481443
H        6.29219031       2.26873456      -4.01695657
C       -1.79163991      -1.79163991      -1.79163991
C       -1.55840447      -1.85144414      -3.16349687
C       -2.36821557      -2.65441363      -3.96913887
C       -3.41919880      -3.39840356      -3.40838508
C       -3.63556348      -3.33203016      -2.02355969
C       -2.82459074      -2.52977102      -1.21765091
C       -4.30036714      -4.25872517      -4.28217429
N       -5.07793008      -3.46265629      -5.22321337
N       -4.88030456      -3.61106554      -6.55241743
C       -5.76929474      -2.78896221      -7.10557965
N       -5.90058833      -2.64242007      -8.43107355
C       -6.52228514      -2.11221232      -6.12546677
Br      -7.87212228      -0.85229349      -6.42220854
C       -6.06651708      -2.56849208      -4.91737078
H       -0.75401765      -1.27721150      -3.61583468
H       -2.18084111      -2.69135851      -5.04218024
H       -4.43843625      -3.90168548      -1.55954096
H       -3.00680309      -2.48600920      -0.14681456
H       -5.02060309      -4.83474588      -3.69006199
H       -3.68842727      -4.97112402      -4.84828577
H       -6.37878752      -1.83903435      -8.81886004
H       -5.16840581      -3.02668354      -9.01562264
H       -6.34126825      -2.33875531      -3.89785789
C       -1.79163991       1.79163991       1.79163991
C       -2.60041193       2.76426484       1.20866872
C       -3.40260486       3.57282564       2.01633758
C       -3.39697553       3.41689964       3.41211226
C       -2.58161197       2.42736794       3.98217342
C       -1.78021852       1.61778897       3.17400518
C       -4.25760221       4.29855914       4.28510525
N       -3.84604367       5.69519513       4.22256094
N       -4.69396815       6.62380988       3.72600950
C       -4.03229089       7.77109080       3.86045490
N       -4.53830297       8.95301603       3.48276295
C       -2.76085112       7.56661285       4.43250026
Br      -1.47424099       8.87347620       4.79890712
C       -2.66435857       6.22086497       4.66715640
H       -2.61245426       2.90379810       0.13081148
H       -4.02879823       4.33415873       1.55142289
H       -2.56048031       2.27905613       5.06012626
H       -1.15122249       0.85775690       3.63064745
H       -4.20292114       4.00334653       5.33914328
H       -5.30647443       4.22835137       3.97301125
H       -3.93590914       9.75481813       3.34595464
H       -5.36857992       8.93892845       2.90320362
H       -1.88224670       5.60627585       5.08935890
C        1.79163991      -1.79163991       1.79163991
C        2.31769590      -2.97552503       1.28012455
C        3.11991230      -3.78304718       2.08880859
C        3.39667989      -3.41395991       3.41534764
C        2.86446607      -2.21445425       3.91223301
C        2.06309128      -1.40616938       3.10275201
C        4.25632664      -4.29307706       4.29186291
N        3.62851332      -5.58203414       4.55325227
N        4.21537277      -6.71702939       4.11138536
C        3.41997323      -7.68718281       4.55668055
N        3.65767224      -8.98633475       4.33007496
C        2.32363890      -7.16489280       5.27143253
Br       0.93989150      -8.13836673       6.06836608
C        2.48234308      -5.80467672       5.26536015
H        2.10846628      -3.28052442       0.25807313
H        3.52342264      -4.70980782       1.68114939
H        3.06625599      -1.89924090       4.93416580
H        1.65512995      -0.48143772       3.50305918
H        4.44394913      -3.83281970       5.26864212
H        5.22738315      -4.46729849       3.81315542
H        2.92330466      -9.67430692       4.43907034
H        4.35844231      -9.21613897       3.63613071
H        1.89684444      -4.99812915       5.68290785
C       -0.00445707       0.01189536      -1.78238275
H       -0.66409135       0.67374010      -2.43557963
H        0.65740317      -0.63156657      -2.45157240
C       -0.90989263      -0.90692880      -0.91072765
C        0.90977584       0.90977584      -0.90977584
C       -0.00465871       1.77757030       0.00794375
H       -0.66225468       2.44313916      -0.64384735
H        0.64322798       2.43503045       0.67728295
C       -1.78241447       0.00034974      -0.00472694
H       -2.45427497      -0.65498947       0.64260836
H       -2.43311707       0.67328779      -0.65473579
C       -0.91132561       0.90220522       0.91563759
C       -0.01476271      -0.02253852       1.78660255
H       -0.67934791      -0.69751639       2.42135241
H        0.63392994       0.61504881       2.47327442
C        0.01484550      -1.77751727      -0.01636693
H        0.67870853      -2.42144646      -0.68295456
H       -0.62264859      -2.45592969       0.64226336
C        1.78714474       0.01002794       0.00389507
H        2.44202412       0.67113390       0.66197326
H        2.45385902      -0.65136977      -0.64189061
C        0.91606151      -0.90478549       0.90901405
