101
Properties=species:S:1:pos:R:3 pbc="F F F"
C        0.00000000       0.00000000       0.00000000
C        0.91277302       0.91277302      -0.91277302
C        1.42638512       0.11283038      -2.08839406
C        2.30077440       1.00158686      -2.93760719
O        1.80663735       1.88512985      -3.63991986
C        3.80190340       0.80678003      -2.82860332
C        4.56468395       1.73816904      -3.76302442
C        4.35740367       1.32880301      -5.20766999
O        4.68041579       0.20499398      -5.59599653
C        3.79649638       2.35549339      -6.16233970
C        4.92990849       3.11179626      -6.81253315
H        1.72704841       1.27819343      -0.27982801
H        0.30052098       1.76369851      -1.22631809
H        0.60698212      -0.25933703      -2.71451331
H        1.99944102      -0.76254708      -1.76268796
H        4.03184689      -0.24165393      -3.04706304
H        4.08827656       1.01951291      -1.79275430
H        5.64026388       1.68593956      -3.55941435
H        4.26074934       2.78045760      -3.62036390
H        3.12049198       3.02645155      -5.62205580
H        3.18418995       1.83221252      -6.90605966
H        5.56125589       2.46245511      -7.42536692
H        5.55694280       3.62700496      -6.07940161
C        4.40047033       4.12632902      -7.68661467
C        3.95706587       4.97600021      -8.41865795
Br       3.24011836       6.34984666      -9.60231001
C       -0.91277302      -0.91277302      -0.91277302
C       -0.31156020      -2.29580737      -1.02024198
C       -1.19421067      -3.14348350      -1.90227427
O       -2.28388025      -3.55112876      -1.49667805
C       -0.71555838      -3.40281819      -3.31891018
C       -1.67770218      -4.30014773      -4.08802751
C       -1.63876894      -5.71347231      -3.54163541
O       -0.58829902      -6.35733536      -3.53577192
C       -2.93299249      -6.32299471      -3.05834228
C       -3.59873137      -7.06019881      -4.19530771
H       -0.97919604      -0.41896603      -1.88690777
H       -1.90699615      -0.92743319      -0.45610825
H       -0.23808391      -2.78314687      -0.04092762
H        0.70178881      -2.26525210      -1.43611861
H        0.28324585      -3.84988657      -3.27061528
H       -0.64139432      -2.43404716      -3.82510228
H       -1.39101235      -4.34998811      -5.14461732
H       -2.70043539      -3.91066050      -4.05047495
H       -3.57876244      -5.53679453      -2.65344236
H       -2.70339263      -6.99551206      -2.22355744
H       -2.99757291      -7.90234046      -4.54916456
H       -3.82028154      -6.40250765      -5.04056018
C       -4.85800804      -7.60148972      -3.75391625
C       -5.91265225      -8.05482086      -3.38425091
Br      -7.61792274      -8.78781897      -2.78653331
C       -0.91277302       0.91277302       0.91277302
C       -0.87551812       2.33915509       0.41293635
C       -1.74507580       3.19056762       1.30432503
O       -2.97324136       3.10886822       1.24957748
C       -1.04292807       4.08452082       2.30983786
C       -2.03175562       4.91604271       3.11807909
C       -2.67803473       5.97213816       2.24370377
O       -1.99243850       6.81959490       1.66937290
C       -4.18468145       5.98563337       2.14401466
C       -4.75239132       6.89334101       3.20850555
H       -0.52583131       0.82663593       1.93260260
H       -1.92092792       0.48869010       0.88091956
H       -1.25513112       2.41946839      -0.61244110
H        0.14478639       2.73876509       0.40560320
H       -0.33980349       4.72772392       1.76972859
H       -0.47557239       3.43729904       2.98767233
H       -1.51596580       5.43684256       3.93280942
H       -2.80071223       4.28498969       3.57586892
H       -4.56663557       4.96375450       2.23860925
H       -4.45771237       6.32633752       1.13841225
H       -4.44474101       7.93361742       3.07071950
H       -4.47506513       6.57188485       4.21639939
C       -6.19107029       6.87151285       3.15083088
C       -7.39596392       6.85323176       3.10252834
Br      -9.34417502       6.82367278       3.02442723
C        0.91277302      -0.91277302       0.91277302
C        1.86075258      -0.05114158       1.71571541
C        2.72579607      -0.94418795       2.56998443
O        2.26048233      -1.51131466       3.55989007
C        4.15627036      -1.16656588       2.11445051
C        4.92903754      -2.05414813       3.08269175
C        5.18569578      -1.32284819       4.38533269
O        5.81707090      -0.26490315       4.39943224
C        4.69305635      -1.95733079       5.66394233
C        5.77868572      -2.83163288       6.24391929
H        1.44676075      -1.59442173       0.24388737
H        0.24277274      -1.49716655       1.55059830
H        1.32152860       0.63682338       2.37745318
H        2.49551088       0.56395865       1.06802966
H        4.64094948      -0.19027499       2.00603154
H        4.11874841      -1.64983643       1.13195892
H        5.90423155      -2.32136397       2.66002226
H        4.39506650      -2.99039505       3.27610929
H        3.78031994      -2.52735766       5.46132173
H        4.41020413      -1.15585808       6.35639993
H        6.66343361      -2.25597802       6.52966629
H        6.07980105      -3.62711320       5.55643512
C        5.29760126      -3.47892783       7.43688492
C        4.89469303      -4.02103735       8.43599364
Br       4.24322450      -4.89758259      10.05146793
