122
Properties=species:S:1:pos:R:3 pbc="F F F"
C        1.82267704       1.82267704      -1.82267704
C        2.33628914       1.02273440      -2.99829808
C        3.21067843       1.91149088      -3.84751121
O        2.71654137       2.79503387      -4.54982389
C        4.71180743       1.71668405      -3.73850735
C        5.47458798       2.64807307      -4.67292844
C        5.26730769       2.23870703      -6.11757401
O        5.59031981       1.11489800      -6.50590056
C        4.70640041       3.26539741      -7.07224373
C        5.83981251       4.02170028      -7.72243717
H        2.63695243       2.18809745      -1.18973203
H        1.21042500       2.67360254      -2.13622212
H        1.51688615       0.65056699      -3.62441733
H        2.90934504       0.14735694      -2.67259198
H        4.94175092       0.66825009      -3.95696706
H        4.99818058       1.92941693      -2.70265833
H        6.55016790       2.59584358      -4.46931837
H        5.17065337       3.69036162      -4.53026793
H        4.03039600       3.93635557      -6.53195983
H        4.09409398       2.74211655      -7.81596368
H        6.47115992       3.37235913      -8.33527095
H        6.46684682       4.53690898      -6.98930564
C        5.31037435       5.03623304      -8.59651869
C        4.86696989       5.88590423      -9.32856197
Br       4.15002238       7.25975068     -10.51221403
C       -1.82267704      -1.82267704      -1.82267704
C       -1.92812369      -3.20643209      -1.22276586
C       -2.79478469      -4.05958606      -2.11530977
O       -4.01411066      -3.88816013      -2.15912834
C       -2.09329275      -5.07375494      -2.99995114
C       -3.08291630      -5.89250299      -3.82017020
C       -3.86660208      -6.83182962      -2.92515704
O       -3.28873980      -7.67953506      -2.24284351
C       -5.37325319      -6.73219844      -2.93858991
C       -5.93178462      -7.67553824      -3.97662710
H       -1.35985747      -1.84095541      -2.81396904
H       -2.79575478      -1.32782192      -1.89667295
H       -2.38360320      -3.18245614      -0.22581113
H       -0.94386165      -3.67484223      -1.11059010
H       -1.48020568      -5.72209749      -2.36466490
H       -1.43269148      -4.52079239      -3.67677197
H       -2.55203759      -6.50806725      -4.55522501
H       -3.76816820      -5.24543097      -4.37768374
H       -5.66954676      -5.69611494      -3.13304970
H       -5.74095361      -6.97618785      -1.93503275
H       -5.71381254      -8.72146174      -3.74351572
H       -5.56110170      -7.45116824      -4.98079151
C       -7.36522361      -7.54869851      -4.02920396
C       -8.56572877      -7.44247024      -4.07323708
Br     -10.50684408      -7.27070810      -4.14443492
C       -1.82267704       1.82267704       1.82267704
C       -2.10595631       1.12021797       3.13114735
C       -2.98479833       2.00573765       3.97914454
O       -2.52841217       3.01586229       4.51712468
C       -4.45425590       1.63849235       4.07425057
C       -5.21893875       2.58842436       4.98822637
C       -4.80912364       2.38164823       6.43281686
O       -4.94999873       1.28487195       6.97624769
C       -4.27696971       3.57076614       7.19630569
C       -5.41683472       4.27357501       7.89354024
H       -2.73864228       2.01888730       1.25725234
H       -1.28769935       2.76629911       1.96625120
H       -1.18485055       0.91707661       3.68994331
H       -2.60060783       0.15522083       2.97346531
H       -4.53072650       0.60556995       4.43067163
H       -4.87425301       1.69218183       3.06382100
H       -6.29592687       2.39629638       4.92310660
H       -5.06054036       3.63243220       4.69831036
H       -3.74934570       4.24034128       6.50902443
H       -3.52925717       3.21041629       7.91250074
H       -5.89518736       3.63892521       8.64467743
H       -6.17696208       4.62565317       7.19044619
C       -4.92294997       5.43755076       8.58262535
C       -4.50932150       6.41238046       9.15973414
Br      -3.84051924       7.98859763      10.09287023
C        1.82267704      -1.82267704       1.82267704
C        1.87312317      -3.22480358       1.25939487
C        2.74088554      -4.07725752       2.15153746
O        3.96520864      -3.93917885       2.15701165
C        2.03706790      -5.04655511       3.08337581
C        3.02660047      -5.87008598       3.89890304
C        3.75863012      -6.85537383       3.00958479
O        3.13868634      -7.70484110       2.36759092
C        5.26722704      -6.79797851       2.97883600
C        5.82872983      -7.72785702       4.02736312
H        1.38769522      -1.80066558       2.82642112
H        2.81067310      -1.35364089       1.85593567
H        2.30076720      -3.24107015       0.25003312
H        0.87359974      -3.66814765       1.18754658
H        1.38872677      -5.69452889       2.48371241
H        1.41126246      -4.45679557       3.76219780
H        2.49998355      -6.45001015       4.66533616
H        3.74482035      -5.22755365       4.41890892
H        5.59722124      -5.76572363       3.13576653
H        5.59961777      -7.07970619       1.97285025
H        5.57563527      -8.77321602       3.82993870
H        5.49283748      -7.46563267       5.03459129
C        7.26602320      -7.64013319       4.03696969
C        8.46975640      -7.56666448       4.04501520
Br      10.41609118      -7.44787180       4.05802411
C       -0.00445707       0.01189536      -1.78238275
H       -0.66409135       0.67374010      -2.43557963
H        0.65740317      -0.63156657      -2.45157240
C       -0.90989263      -0.90692880      -0.91072765
C        0.90977584       0.90977584      -0.90977584
C       -0.00465871       1.77757030       0.00794375
H       -0.66225468       2.44313916      -0.64384735
H        0.64322798       2.43503045       0.67728295
C       -1.78241447       0.00034974      -0.00472694
H       -2.45427497      -0.65498947       0.64260836
H       -2.43311707       0.67328779      -0.65473579
C       -0.91132561       0.90220522       0.91563759
C       -0.01476271      -0.02253852       1.78660255
H       -0.67934791      -0.69751639       2.42135241
H        0.63392994       0.61504881       2.47327442
C        0.01484550      -1.77751727      -0.01636693
H        0.67870853      -2.42144646      -0.68295456
H       -0.62264859      -2.45592969       0.64226336
C        1.78714474       0.01002794       0.00389507
H        2.44202412       0.67113390       0.66197326
H        2.45385902      -0.65136977      -0.64189061
C        0.91606151      -0.90478549       0.90901405
