186
Properties=species:S:1:pos:R:3 pbc="F F F"
C       -4.19701660       2.23799945      -4.75028016
O       -2.96978558       2.96890214      -4.70702821
C       -2.29469250       3.00744050      -5.88315791
O       -2.62893921       2.43791589      -6.91283722
C       -1.10035603       3.90130390      -5.79817514
C       -0.68336982       4.42103510      -4.63096596
N        0.38147703       5.30956382      -4.56752309
C        0.74460885       5.89666707      -3.27195834
C        2.12502197       5.45849281      -2.74548999
N        2.32073025       4.00328273      -2.67775228
C        3.34952370       3.42790411      -3.41051288
C        3.60552151       2.11055579      -3.35272433
C        2.77719603       1.26839430      -2.51453116
C        1.77785089       1.77785089      -1.77785089
C        1.50850809       3.25861059      -1.81491309
O        0.62095896       3.76306987      -1.13290407
C        4.75119845       1.59436914      -4.15587867
O        5.58997503       2.30407931      -4.69075454
O        4.71501013       0.23794926      -4.21207891
C        5.77306496      -0.34123283      -4.97799197
C        1.08096887       5.72875618      -5.70351459
O        2.00066661       6.54571560      -5.65477745
C        0.64530478       5.11058671      -7.00454456
C       -0.38518396       4.25139532      -7.01140445
H       -4.53760158       2.08823999      -3.72224068
H       -4.06575100       1.25615013      -5.21578479
H       -4.95254756       2.82157097      -5.28510826
H       -1.17207484       4.18925793      -3.68815010
H       -0.03817277       5.67856228      -2.53820546
H        0.75090168       6.98774644      -3.39181566
H        2.25145584       5.85407476      -1.72986743
H        2.91767144       5.90628912      -3.35503783
H        3.94602444       4.09753787      -4.02878065
H        2.98556238       0.20290474      -2.49225278
H        5.61809378      -1.42339107      -5.00441389
H        6.73902252      -0.14000297      -4.50461893
H        5.75768335       0.03488860      -6.00587672
H       -0.71868883       3.79239095      -7.93898317
C        1.34865894       5.46667426      -8.20957343
C        1.93771805       5.76489759      -9.21878510
Br       2.89017682       6.24709948     -10.85059503
C       -0.80892016      -5.60471443       3.62237158
O       -1.73261132      -5.50965302       2.53611957
C       -1.71532933      -6.56760524       1.68702866
O       -0.95748751      -7.52498357       1.76065718
C       -2.79848262      -6.46364526       0.66300486
C       -3.54108428      -5.35201349       0.52446653
N       -4.59440302      -5.28660295      -0.37755797
C       -5.41203162      -4.06861362      -0.43258902
C       -5.28928504      -3.28557967      -1.75414005
N       -3.91163880      -2.94929522      -2.14083125
C       -3.41732470      -3.42208544      -3.34853055
C       -2.18281800      -3.10989134      -3.77609229
C       -1.34239623      -2.26963352      -2.94809173
C       -1.77785089      -1.77785089      -1.77785089
C       -3.17252716      -2.09893484      -1.31056978
O       -3.61394687      -1.64375979      -0.25922624
C       -1.75571027      -3.64459619      -5.10113980
O       -2.51178679      -4.16535647      -5.90766561
O       -0.41820423      -3.47868207      -5.26815199
C        0.07966401      -3.97902366      -6.51046444
C       -4.95830562      -6.36531468      -1.18961935
O       -5.91552773      -6.32298235      -1.96264957
C       -4.09750815      -7.59378110      -1.06914680
C       -3.08658579      -7.60398066      -0.18704935
H       -0.75232345      -4.62514725       4.10459162
H        0.19344964      -5.87672541       3.27709184
H       -1.17641204      -6.33122477       4.35350514
H       -3.36766970      -4.46301272       1.12534922
H       -5.17324100      -3.42771140       0.42235743
H       -6.46061548      -4.36637354      -0.30347476
H       -5.84079896      -2.34251156      -1.65208751
H       -5.77150259      -3.84214169      -2.56535411
H       -4.08208616      -4.05200424      -3.93825257
H       -0.34064869      -2.04080783      -3.29926338
H        1.16511367      -3.84662761      -6.51760266
H       -0.34489141      -3.41324183      -7.34550523
H       -0.13853774      -5.04677739      -6.61313353
H       -2.45122887      -8.48003801      -0.08141841
C       -4.39066029      -8.72879497      -1.90545137
C       -4.63617521      -9.67936908      -2.60585645
Br      -5.03315207     -11.21636703      -3.73835223
C        0.63597830      -2.69723480       6.12447610
O        0.05318752      -1.39271175       6.15204405
C       -1.15277576      -1.32683795       6.76996811
O       -1.76575287      -2.27817176       7.23423279
C       -1.63192316       0.08391756       6.88328229
C       -1.00541069       1.09906964       6.26415091
N       -1.41001413       2.41645231       6.43209750
C       -0.64187438       3.48681605       5.78454384
C       -1.41201063       4.23667379       4.68032034
N       -1.98877567       3.37199832       3.64099127
C       -3.36232138       3.38374797       3.44187135
C       -3.94151099       2.65003976       2.47725088
C       -3.11149879       1.81537418       1.63324852
C       -1.77785089       1.77785089       1.77785089
C       -1.12184453       2.62357687       2.83661038
O        0.09757117       2.63562981       2.97887426
C       -5.42150178       2.75401392       2.32593056
O       -6.10956695       3.60408592       2.87115601
O       -5.88313440       1.76907710       1.51282679
C       -7.29941418       1.78580257       1.32460734
C       -2.48080818       2.77590660       7.25652486
O       -2.81764654       3.94615493       7.43735819
C       -3.21232330       1.63591123       7.91220151
C       -2.78580606       0.37963201       7.71217773
H        1.47800743      -2.67655969       5.42744620
H       -0.07833508      -3.45110964       5.77895849
H        1.01461532      -2.95063840       7.11938538
H       -0.14195358       0.94000604       5.62337358
H        0.29741629       3.08038440       5.39562685
H       -0.35984699       4.20966297       6.56095382
H       -0.72131898       4.92997822       4.18410083
H       -2.20265924       4.85040620       5.12593294
H       -3.94837489       4.02386497       4.10010311
H       -3.59645284       1.21464341       0.86962364
H       -7.56828988       0.92579598       0.70503074
H       -7.60259253       2.69855844       0.80248750
H       -7.81855930       1.69578423       2.28410514
H       -3.29750138      -0.46043131       8.17561522
C       -4.35077020       1.93099212       8.74314431
C       -5.30421947       2.17812237       9.43905890
Br      -6.84586631       2.57771107      10.56429394
C        5.93272099       3.16088528       0.01942730
O        5.83185254       2.16691247       1.04120470
C        6.81080657       1.22809339       1.01319273
O        7.69939905       1.15343222       0.17584707
C        6.72046513       0.30976296       2.18842083
C        5.67207259       0.33253442       3.02909307
N        5.62733434      -0.47059118       4.16063841
C        4.48692628      -0.34926740       5.07704059
C        3.59031570      -1.60111867       5.13757039
N        3.10163671      -2.06787664       3.83225191
C        3.42769243      -3.34946434       3.41078393
C        2.97237077      -3.84720508       2.24922578
C        2.13109302      -3.01912743       1.40990104
C        1.77785089      -1.77785089       1.77785089
C        2.25957376      -1.22834264       3.09411537
O        1.93345073      -0.10786869       3.47561349
C        3.35626783      -5.24529751       1.89988093
O        3.87462875      -6.03041295       2.67976717
O        3.05830625      -5.50593853       0.60079351
C        3.40855327      -6.82463834       0.17663248
C        6.66401013      -1.34324734       4.50598217
O        6.64416787      -2.02827613       5.52871565
C        7.81632569      -1.40409021       3.54002014
C        7.80841680      -0.61233136       2.45686765
H        4.99487916       3.72247658       0.00047650
H        6.08479081       2.71162842      -0.96697846
H        6.74668308       3.85180653       0.25925512
H        4.82341655       0.99423421       2.87615085
H        3.89952843       0.53707713       4.81614367
H        4.88682135      -0.16172756       6.08191486
H        2.71189012      -1.37027551       5.75323240
H        4.11934590      -2.41654901       5.64310348
H        4.06402296      -3.93662567       4.07169433
H        1.78559818      -3.42940591       0.46571580
H        3.17950854      -6.90891053      -0.88930248
H        2.81642096      -7.56810893       0.71910857
H        4.47950689      -7.00411239       0.31482938
H        8.62986406      -0.63791067       1.74491057
C        8.90057420      -2.31164661       3.81268583
C        9.80863232      -3.07172508       4.04104334
Br      11.27688550      -4.30070770       4.41027813
C       -0.00445707       0.01189536      -1.78238275
H       -0.66409135       0.67374010      -2.43557963
H        0.65740317      -0.63156657      -2.45157240
C       -0.90989263      -0.90692880      -0.91072765
C        0.90977584       0.90977584      -0.90977584
C       -0.00465871       1.77757030       0.00794375
H       -0.66225468       2.44313916      -0.64384735
H        0.64322798       2.43503045       0.67728295
C       -1.78241447       0.00034974      -0.00472694
H       -2.45427497      -0.65498947       0.64260836
H       -2.43311707       0.67328779      -0.65473579
C       -0.91132561       0.90220522       0.91563759
C       -0.01476271      -0.02253852       1.78660255
H       -0.67934791      -0.69751639       2.42135241
H        0.63392994       0.61504881       2.47327442
C        0.01484550      -1.77751727      -0.01636693
H        0.67870853      -2.42144646      -0.68295456
H       -0.62264859      -2.45592969       0.64226336
C        1.78714474       0.01002794       0.00389507
H        2.44202412       0.67113390       0.66197326
H        2.45385902      -0.65136977      -0.64189061
C        0.91606151      -0.90478549       0.90901405
