198
Properties=species:S:1:pos:R:3 pbc="F F F"
C        5.73611512       7.71143479      -6.70726316
N        6.04005502       6.82598723      -5.58349289
C        5.04961356       6.96178895      -4.50424094
C        3.66086706       6.39722810      -4.82012400
C        3.73172209       4.92129697      -5.26957120
C        4.78237370       4.77966856      -6.39218438
C        6.12003997       5.41741603      -6.00663067
O        4.27386232       4.15199004      -4.14344380
C        3.40518031       3.39863694      -3.39543123
C        3.97881542       2.61205639      -2.39579208
C        3.17306715       1.80305101      -1.59373621
C        1.79271937       1.79271937      -1.79271937
C        1.20970951       2.58059126      -2.78490989
C        2.01876019       3.38086243      -3.60064011
C        1.47461899       4.27831329      -4.66331561
H        1.26480052       5.25700470      -4.20727325
C        0.25041194       3.86383901      -5.46268865
C        0.49452288       4.58710776      -6.76485048
N        1.79295671       4.94508106      -6.90393760
N        2.45597834       4.37032579      -5.73058757
C       -0.40230086       4.83867787      -7.83722906
C       -0.21848374       4.60015248      -9.19062426
C       -1.34094228       4.97189220      -9.98502535
C       -2.33529859       5.49902167      -9.20279266
Br      -3.95861448       6.13723291      -9.88944666
S       -1.96078237       5.51115456      -7.55262172
H        6.51449285       7.63118780      -7.47407782
H        5.73613400       8.75631588      -6.37648088
H        4.77141068       7.50821985      -7.18165803
H        4.95513511       8.01819361      -4.22123657
H        5.44724085       6.46493726      -3.60917796
H        3.06255570       6.49560629      -3.90648344
H        3.17937016       7.01630313      -5.58594966
H        4.43057311       5.23368314      -7.32639639
H        4.96216666       3.71666818      -6.60239544
H        6.57718243       4.84010989      -5.19247739
H        6.82068436       5.32502937      -6.84617732
H        5.05533803       2.62638466      -2.25626468
H        3.63013552       1.18781943      -0.82547509
H        0.13424957       2.57318090      -2.93463140
H        0.20163231       2.78227235      -5.63780813
H       -0.67453982       4.18570655      -4.97378485
H        0.69912547       4.16578196      -9.57026028
H       -1.39256668       4.86154881     -11.05842235
C       -7.83045817      -6.38090705      -5.94344784
N       -6.72209113      -5.47721296      -6.25023106
C       -6.81046751      -4.22985159      -5.47532435
C       -6.52872510      -4.37323305      -3.97626101
C       -5.16397352      -5.04638713      -3.71222961
C       -5.06859363      -6.34758346      -4.53804955
C       -5.41671244      -6.11622839      -6.01114583
O       -4.13199653      -4.16555038      -4.27174925
C       -3.39707060      -3.39669494      -3.40548293
C       -2.36622832      -2.64707739      -3.97335819
C       -1.55797653      -1.84541163      -3.16646620
C       -1.79271937      -1.79271937      -1.79271937
C       -2.82490039      -2.53321884      -1.21709143
C       -3.62661554      -3.35009214      -2.02355504
C       -4.77207139      -4.14948206      -1.49469443
H       -5.67335169      -3.52030004      -1.53542675
C       -4.69804917      -4.76962476      -0.10926567
C       -5.59776736      -5.96962499      -0.27908876
N       -5.77401377      -6.28357969      -1.58438190
N       -4.90436559      -5.34906167      -2.30346444
C       -6.17056345      -6.81299648       0.70995386
C       -6.15370505      -8.19766244       0.77907448
C       -6.82761009      -8.71214080       1.92377562
C       -7.35025997      -7.69351693       2.67726115
Br      -8.33971788      -7.97302909       4.24468189
S       -7.00923416      -6.15484707       2.06108733
H       -7.77214375      -7.27810130      -6.56951341
H       -8.78676881      -5.90110829      -6.18105367
H       -7.86417039      -6.69972122      -4.89739694
H       -7.80086589      -3.77779365      -5.61590575
H       -6.10667736      -3.50641966      -5.90825906
H       -6.55104396      -3.36288126      -3.55072020
H       -7.34083584      -4.93747914      -3.50330796
H       -5.73082756      -7.12378108      -4.13604400
H       -4.04579997      -6.74519051      -4.49023980
H       -4.64022025      -5.49430924      -6.47524022
H       -5.37142244      -7.07201208      -6.54845652
H       -2.19205908      -2.70244209      -5.04348620
H       -0.75286498      -1.27383278      -3.61673228
H       -3.00746227      -2.48690604      -0.14769356
H       -3.68553384      -5.09492070       0.15874175
H       -5.06329575      -4.07967266       0.65801683
H       -5.66060729      -8.79712531       0.02256488
H       -6.92077186      -9.76297614       2.15634352
C       -6.12303581       7.85840516       6.17337210
N       -6.38952653       6.62321845       5.43679016
C       -5.76872339       6.64369111       4.10322895
C       -4.24001315       6.54316291       4.09504310
C       -3.74368252       5.30515512       4.87375262
C       -4.40813819       5.27878249       6.26730596
C       -5.92859230       5.43704765       6.17844672
O       -4.26634309       4.12107304       4.18188003
C       -3.40541374       3.39612570       3.39770904
C       -3.92242133       2.22801194       2.83623062
C       -3.11480718       1.42040482       2.03464236
C       -1.79271937       1.79271937       1.79271937
C       -1.26919583       2.96188985       2.34412498
C       -2.07397629       3.76491557       3.16137087
C       -1.60390210       5.04795056       3.76439522
H       -1.81953148       5.85767377       3.05187323
C       -0.16127128       5.19748299       4.21818533
C       -0.30846404       6.21129999       5.32671708
N       -1.58434749       6.28329664       5.77433123
N       -2.28971281       5.23592486       5.03125403
C        0.68921464       6.98362130       5.97919941
C        0.90757219       7.14049179       7.33937341
C        2.01157508       7.98980097       7.63774938
C        2.58360377       8.46405076       6.48606877
Br       4.04184028       9.64183851       6.46806686
S        1.85176710       7.87695708       5.07780393
H       -6.63799569       7.84151568       7.14024709
H       -6.52360187       8.71930559       5.62602330
H       -5.06052721       8.04181929       6.35894205
H       -6.07464861       7.55194248       3.56797419
H       -6.18897980       5.81595286       3.51642342
H       -3.93075663       6.48950003       3.04438876
H       -3.81028133       7.46299676       4.50834485
H       -4.00777920       6.06852664       6.91434680
H       -4.19571645       4.32210116       6.76341266
H       -6.36002283       4.54639788       5.70334900
H       -6.35124667       5.44953594       7.19110844
H       -4.95181892       1.94828115       3.03788730
H       -3.52377104       0.50902621       1.61063279
H       -0.24055749       3.25091201       2.15059238
H        0.25951723       4.26582513       4.61540489
H        0.47841534       5.55728201       3.40608491
H        0.28417717       6.64480036       8.07454452
H        2.34234714       8.23269550       8.63705612
C        7.82967685      -6.38425626       5.94087996
N        6.72345979      -5.47805323       6.24802213
C        6.81267085      -4.23222619       5.47074641
C        6.52801346      -4.37776396       3.97244175
C        5.16160422      -5.04896065       3.71202539
C        5.06538465      -6.34851980       4.54032219
C        5.41652806      -6.11517258       6.01238602
O        4.13218520      -4.16530257       4.27180839
C        3.39708621      -3.39668003       3.40548224
C        2.36858415      -2.64422795       3.97385181
C        1.56032310      -1.84255975       3.16697151
C        1.79271937      -1.79271937       1.79271937
C        2.82256255      -2.53606953       1.21657858
C        3.62425927      -3.35293436       2.02306909
C        4.76735559      -4.15529302       1.49359927
H        5.66982057      -3.52764110       1.53161682
C        4.68977445      -4.77775794       0.10940720
C        5.58766440      -5.97905094       0.27976577
N        5.76567147      -6.29100402       1.58529987
N        4.89895922      -5.35367025       2.30426223
C        6.15720771      -6.82518986      -0.70879150
C        6.13777237      -8.20994404      -0.77542341
C        6.80873087      -8.72764630      -1.92040190
C        7.33184668      -7.71128918      -2.67662011
Br       8.31802294      -7.99533552      -4.24529338
S        6.99464325      -6.17092649      -2.06257583
H        7.77088402      -7.28023447       6.56863997
H        8.78725679      -5.90573588       6.17593809
H        7.86096651      -6.70498335       4.89533868
H        7.80411698      -3.78167905       5.60876925
H        6.11093388      -3.50677953       5.90364266
H        6.55136745      -3.36820923       3.54506874
H        7.33828176      -4.94428855       3.49905264
H        5.72552692      -7.12660338       4.13852235
H        4.04180457      -6.74439427       4.49503144
H        4.64196468      -5.49105406       6.47675097
H        5.37049816      -7.06992049       6.55147239
H        2.19621745      -2.69738646       5.04438346
H        0.75702668      -1.26875506       3.61764829
H        3.00330713      -2.49197649       0.14677826
H        3.67620987      -5.10173007      -0.15622714
H        5.05488041      -4.08981652      -0.65974535
H        5.64495690      -8.80718860      -0.01697779
H        6.89961684      -9.77905597      -2.15126833
C       -0.00445707       0.01189536      -1.78238275
H       -0.66409135       0.67374010      -2.43557963
H        0.65740317      -0.63156657      -2.45157240
C       -0.90989263      -0.90692880      -0.91072765
C        0.90977584       0.90977584      -0.90977584
C       -0.00465871       1.77757030       0.00794375
H       -0.66225468       2.44313916      -0.64384735
H        0.64322798       2.43503045       0.67728295
C       -1.78241447       0.00034974      -0.00472694
H       -2.45427497      -0.65498947       0.64260836
H       -2.43311707       0.67328779      -0.65473579
C       -0.91132561       0.90220522       0.91563759
C       -0.01476271      -0.02253852       1.78660255
H       -0.67934791      -0.69751639       2.42135241
H        0.63392994       0.61504881       2.47327442
C        0.01484550      -1.77751727      -0.01636693
H        0.67870853      -2.42144646      -0.68295456
H       -0.62264859      -2.45592969       0.64226336
C        1.78714474       0.01002794       0.00389507
H        2.44202412       0.67113390       0.66197326
H        2.45385902      -0.65136977      -0.64189061
C        0.91606151      -0.90478549       0.90901405
