166
Properties=species:S:1:pos:R:3 pbc="F F F"
C        1.79158097       1.79158097      -1.79158097
C        2.72412526       1.20800431      -2.63749225
C        3.52985010       2.01783921      -3.44174056
C        3.42346376       3.42915236      -3.41972989
C        2.46197288       4.00098332      -2.54498671
C        2.31408915       5.39264782      -2.48262608
C        3.11062077       6.22725543      -3.26050151
C        4.07000325       5.68153741      -4.10580725
O        4.80667521       6.57941368      -4.82861994
C        6.04224636       6.04323621      -5.30699959
N        5.87015474       4.77844594      -6.01368213
C        5.24617394       3.74591311      -5.18980190
C        4.22408552       4.29382115      -4.22182403
C        5.43123230       4.93519196      -7.33938535
C        4.06933593       4.88162276      -7.68347371
C        3.64040795       5.05716783      -9.00361961
C        4.56602795       5.29094019     -10.01502981
C        5.92242188       5.34978058      -9.70761359
C        6.35051725       5.17527683      -8.38558447
C        1.65728049       3.17608955      -1.74200989
H        2.83604258       0.12767598      -2.68147881
H        4.25072314       1.52122206      -4.08697029
H        1.57695814       5.84338365      -1.82171966
H        2.98927668       7.30609029      -3.20081281
H        6.72324165       5.90727400      -4.45531051
H        6.50551224       6.80792554      -5.94215711
H        4.80437153       2.96309063      -5.81840434
H        6.04276514       3.27226015      -4.60205252
H        3.31207257       4.72495703      -6.91967548
H        2.57910637       5.01681539      -9.23568474
H        4.23249151       5.42729415     -11.04025807
H        6.64197978       5.52669646     -10.50264107
H        0.92239269       3.61791216      -1.07307119
C        7.77050707       5.21187835      -8.14917540
C        8.95974854       5.24253213      -7.95118281
Br      10.88265142       5.29209669      -7.63104554
C       -1.79158097      -1.79158097      -1.79158097
C       -2.53276373      -1.22046461      -2.81639348
C       -3.33920773      -2.03003828      -3.62018387
C       -3.42465704      -3.42856614      -3.41912282
C       -2.65680041      -3.98768005      -2.36346245
C       -2.70352187      -5.36636627      -2.11947491
C       -3.50729868      -6.19789221      -2.89318682
C       -4.27999790      -5.66081271      -3.91653731
O       -5.03971820      -6.55429782      -4.62069282
C       -6.12847218      -5.94549976      -5.31851022
N       -5.70825055      -4.81478531      -6.13924695
C       -5.05337693      -3.76214457      -5.36636745
C       -4.23361882      -4.29241784      -4.21369405
C       -5.14186758      -5.19664632      -7.36729572
C       -3.75409593      -5.34912886      -7.53120762
C       -3.20069868      -5.74758270      -8.75291401
C       -4.02432034      -6.00369761      -9.84398000
C       -5.40308300      -5.86192128      -9.71481178
C       -5.95601972      -5.46433947      -8.49101936
C       -1.84922220      -3.16333374      -1.56282400
H       -2.49417546      -0.14996079      -3.00106111
H       -3.90712306      -1.54261977      -4.40917266
H       -2.11534329      -5.80844916      -1.31826900
H       -3.53824941      -7.26594305      -2.69198732
H       -6.88035739      -5.61874888      -4.58671989
H       -6.61167213      -6.72826857      -5.91565420
H       -4.44091010      -3.12698094      -6.01797546
H       -5.84324183      -3.12458701      -4.94924898
H       -3.07742251      -5.18209726      -6.69718531
H       -2.12364255      -5.86298575      -8.84497819
H       -3.59413095      -6.31321299     -10.79269980
H       -6.04168181      -6.05744859     -10.57218691
H       -1.26300725      -3.59531411      -0.75505467
C       -7.38610224      -5.30266661      -8.44279198
C       -8.58379634      -5.16726558      -8.40240155
Br     -10.52036642      -4.94833358      -8.33709364
C       -1.79158097       1.79158097       1.79158097
C       -1.72096858       3.17267354       1.67597970
C       -2.52819735       3.97611952       2.48511301
C       -3.42434476       3.41925988       3.42874137
C       -3.47677505       2.00359258       3.52757528
C       -4.34580975       1.39870880       4.44484450
C       -5.15273852       2.17103737       5.27460181
C       -5.09631648       3.55827200       5.20275944
O       -5.92326454       4.23292264       6.05852165
C       -5.52063961       5.58527534       6.28656721
N       -5.29406498       6.32102442       5.04719342
C       -4.27436095       5.70826142       4.19926658
C       -4.26579029       4.19957466       4.27436577
C       -6.47845242       6.78069633       4.44666086
C       -7.14082940       6.04484049       3.44876251
C       -8.32963369       6.50193073       2.86963096
C       -8.88649870       7.71007070       3.27542856
C       -8.25526572       8.46304789       4.26150244
C       -7.06604645       8.00385163       4.84148047
C       -2.66075461       1.20665924       2.70796608
H       -1.04416352       3.63744130       0.96359255
H       -2.43919129       5.05341749       2.36630671
H       -4.40057240       0.31532931       4.52615974
H       -5.82058680       1.69031674       5.98527623
H       -4.60562827       5.58505135       6.89514654
H       -6.29320088       6.05542463       6.90696938
H       -4.38103290       6.04425432       3.16057927
H       -3.29878442       6.06595860       4.55233480
H       -6.75194043       5.08451555       3.12024910
H       -8.82105332       5.90562342       2.10492976
H       -9.80988494       8.06473420       2.82542459
H       -8.69140603       9.40927787       4.57063341
H       -2.70353315       0.12283771       2.78700518
C       -6.45036356       8.85346829       5.82772897
C       -5.93472914       9.56502224       6.65371210
Br      -5.10099190      10.71554480       7.98925695
C        1.79158097      -1.79158097       1.79158097
C        1.78696911      -3.16797175       1.61468097
C        2.59395032      -3.97150889       2.42397067
C        3.42393434      -3.41946351       3.42894815
C        3.40958050      -2.00859114       3.58977128
C        4.21149663      -1.40859401       4.56927242
C        5.01593240      -2.18199526       5.40045004
C        5.02390526      -3.56584872       5.26759394
O        5.84291046      -4.24205648       6.12974189
C        5.49110757      -5.61897303       6.28240156
N        5.34984765      -6.30820322       5.00423195
C        4.34084830      -5.70226366       4.13877699
C        4.26250402      -4.20007715       4.27714954
C        6.57770849      -6.69041975       4.43768138
C        7.24855014      -5.88387184       3.50201042
C        8.47980067      -6.26426969       2.95712503
C        9.07180955      -7.46452128       3.33566713
C        8.43330958      -8.28631955       4.26018692
C        7.20151608      -7.90387453       4.80598794
C        2.59455456      -1.21146364       2.76936173
H        1.16207331      -3.62903315       0.85409091
H        2.55770103      -5.04530954       2.25590492
H        4.21488328      -0.32851578       4.69866240
H        5.63125620      -1.70531393       6.15960964
H        4.55206510      -5.68431023       6.84945083
H        6.25675000      -6.08296958       6.91587532
H        4.50607520      -5.98725569       3.09253560
H        3.36796133      -6.11613167       4.43298482
H        6.83187724      -4.92728156       3.19754628
H        8.97630598      -5.61453447       2.24076604
H       10.02815601      -7.75960820       2.91227952
H        8.89734265      -9.22598748       4.54798718
H        2.58605625      -0.13135042       2.89596937
C        6.58279674      -8.82148170       5.72728239
C        6.06461929      -9.58997771       6.49886648
Br       5.22677018     -10.83257075       7.74645271
C       -0.00445707       0.01189536      -1.78238275
H       -0.66409135       0.67374010      -2.43557963
H        0.65740317      -0.63156657      -2.45157240
C       -0.90989263      -0.90692880      -0.91072765
C        0.90977584       0.90977584      -0.90977584
C       -0.00465871       1.77757030       0.00794375
H       -0.66225468       2.44313916      -0.64384735
H        0.64322798       2.43503045       0.67728295
C       -1.78241447       0.00034974      -0.00472694
H       -2.45427497      -0.65498947       0.64260836
H       -2.43311707       0.67328779      -0.65473579
C       -0.91132561       0.90220522       0.91563759
C       -0.01476271      -0.02253852       1.78660255
H       -0.67934791      -0.69751639       2.42135241
H        0.63392994       0.61504881       2.47327442
C        0.01484550      -1.77751727      -0.01636693
H        0.67870853      -2.42144646      -0.68295456
H       -0.62264859      -2.45592969       0.64226336
C        1.78714474       0.01002794       0.00389507
H        2.44202412       0.67113390       0.66197326
H        2.45385902      -0.65136977      -0.64189061
C        0.91606151      -0.90478549       0.90901405
