198
Properties=species:S:1:pos:R:3 pbc="F F F"
N        8.00476646       8.22548000      -1.68435330
C        8.06819521       7.10402747      -1.96416061
C        8.12459086       5.70637684      -2.29812955
C        7.49166542       5.25316593      -3.45903846
S        6.44559925       6.30916140      -4.46647384
C        5.86934114       5.14512610      -5.75782850
C        5.05111170       3.96899251      -5.22909028
O        5.10328264       2.88288328      -5.80302478
N        4.23345929       4.27937404      -4.15438405
C        3.41936464       3.40518628      -3.40747926
C        3.27535190       2.04316995      -3.68197049
C        2.46236064       1.23646047      -2.87665038
C        1.79120117       1.79120117      -1.79120117
C        1.92227981       3.14678034      -1.50512626
C        2.73326552       3.95020082      -2.31324039
N        7.57085965       3.97205206      -3.86726393
C        8.23543300       3.07988187      -3.12028382
N        8.19170775       1.78468211      -3.61634230
C        8.84670408       3.42517667      -1.91542512
C        9.47303541       2.38677693      -1.14870200
N       10.02230469       1.55381142      -0.55708273
C        8.81380473       4.77428922      -1.47746294
C        9.45060137       5.18857014      -0.19257968
C        8.72222762       5.88292478       0.79341145
C        9.31709665       6.28687772       1.99396126
C       10.64524185       5.96562941       2.24893537
C       11.38626013       5.26234111       1.30655758
C       10.79914837       4.89620266       0.08953886
H        6.73670532       4.76367727      -6.30651360
H        5.23974948       5.69940217      -6.46124878
H        4.27946789       5.23936948      -3.83240471
H        3.78454710       1.57029637      -4.51588336
H        2.36656973       0.17864461      -3.10852276
H        1.40144308       3.58700753      -0.65900008
H        2.82131487       5.00592110      -2.06976936
H        9.09494611       1.32906084      -3.69550599
H        7.69001283       1.78559636      -4.50500650
H        7.67345306       6.13268917       0.64522109
H        8.73343504       6.84801452       2.72002056
H       12.41985541       4.99243010       1.50508304
H       11.42022419       4.36309245      -0.62895684
C       11.25368520       6.36187641       3.49247267
C       11.76325650       6.69373328       4.53393515
Br      12.58719019       7.23031776       6.21789191
N       -3.00594853      -4.77084039     -10.13781085
C       -2.65083105      -5.30907630      -9.17647594
C       -2.20333461      -5.95417008      -7.97159256
C       -3.11054140      -6.16413452      -6.92919389
S       -4.77735512      -5.49652015      -6.94735922
C       -5.41646187      -6.03745582      -5.31837806
C       -4.65299314      -5.47490596      -4.12129540
O       -4.55682919      -6.14042885      -3.09193267
N       -4.19253263      -4.17965395      -4.29503080
C       -3.40265517      -3.41779641      -3.41157860
C       -2.98690279      -3.86007148      -2.15351806
C       -2.18325915      -3.04897975      -1.34323259
C       -1.79120117      -1.79120117      -1.79120117
C       -2.19836520      -1.33465916      -3.04116205
C       -3.00324039      -2.14654619      -3.84692015
N       -2.77439180      -6.82881130      -5.80697255
C       -1.51816071      -7.26781919      -5.64961879
N       -1.28397292      -7.88147751      -4.42728174
C       -0.52807070      -7.05171031      -6.60752486
C        0.80553506      -7.49513739      -6.31891201
N        1.87086193      -7.90043983      -6.10362094
C       -0.85992259      -6.38853489      -7.81709941
C        0.16819979      -6.13164487      -8.86830611
C        0.39223529      -4.83425342      -9.36972282
C        1.34438984      -4.58890310     -10.36549985
C        2.12214643      -5.63420413     -10.84987820
C        1.94175251      -6.92273572     -10.36106046
C        0.95974369      -7.17091131      -9.39464455
H       -5.40072290      -7.13140712      -5.27476618
H       -6.45742221      -5.70940481      -5.23357342
H       -4.39884644      -3.75869522      -5.19370043
H       -3.26671368      -4.83561618      -1.76839697
H       -1.87050437      -3.41481504      -0.36841770
H       -1.89592998      -0.35368242      -3.39783830
H       -3.30796345      -1.76929142      -4.81975047
H       -0.84043242      -8.79220090      -4.48687962
H       -2.15797086      -7.92072924      -3.90191559
H       -0.17699767      -3.98341573      -9.00050774
H        1.46977583      -3.57988454     -10.75132029
H        2.55707237      -7.74232201     -10.72195283
H        0.83800507      -8.19771947      -9.05255909
C        3.11710925      -5.38067936     -11.85951883
C        3.95039060      -5.16835237     -12.70509285
Br       5.29773608      -4.82503758     -14.07231453
N       -8.42231713       7.79447797       1.69780466
C       -8.39134579       6.69290477       2.05213274
C       -8.33112997       5.32046865       2.47749863
C       -7.59618693       4.98852821       3.61915467
S       -6.56236218       6.17509536       4.48377695
C       -5.82716749       5.14069075       5.80443751
C       -4.96614916       3.98581186       5.29723348
O       -4.90764144       2.94015757       5.94139170
N       -4.24161946       4.27379392       4.15180400
C       -3.41915689       3.40443931       3.40843397
C       -3.16561749       2.07619909       3.75867575
C       -2.35256508       1.26998422       2.95292218
C       -1.79120117       1.79120117       1.79120117
C       -2.03216252       3.11306782       1.42895606
C       -2.84281638       3.91632585       2.23756450
N       -7.56187041       3.73572208       4.11258316
C       -8.21042156       2.75428503       3.47089210
N       -8.04716823       1.50125895       4.04430498
C       -8.91926093       2.97716781       2.29087713
C       -9.52104441       1.85122989       1.63624004
N      -10.04892703       0.94665408       1.13761773
C       -9.00619135       4.29270497       1.76666058
C       -9.75023559       4.57720308       0.50431252
C       -9.13507149       5.24783732      -0.57116786
C       -9.83129687       5.53046073      -1.75174450
C      -11.14804262       5.10867546      -1.89478218
C      -11.77796601       4.42537368      -0.86129603
C      -11.09098817       4.18102668       0.33379732
H       -6.62985830       4.74299414       6.43404376
H       -5.19322967       5.78051255       6.42665822
H       -4.37325216       5.20477352       3.77321641
H       -3.58731209       1.62969355       4.65372118
H       -2.17044976       0.23864959       3.24463775
H       -1.59743364       3.52697949       0.52303757
H       -3.01781995       4.94527790       1.93390749
H       -8.91043319       0.99548169       4.21359806
H       -7.49112194       1.59458586       4.89490789
H       -8.09841754       5.57339171      -0.51088811
H       -9.33459644       6.07692631      -2.55009375
H      -12.80134170       4.07730228      -0.97144151
H      -11.62732861       3.65956825       1.12537662
C      -11.85999671       5.37983708      -3.11674484
C      -12.45625826       5.60693493      -4.14013857
Br     -13.42036275       5.97413296      -5.79487968
N        1.85065405      -7.00198330       9.06196242
C        1.94344740      -7.25641731       7.93651858
C        2.04766707      -7.54906259       6.53236758
C        3.19870268      -7.16849093       5.83667621
S        4.48689101      -6.15894954       6.57539395
C        5.64862599      -5.94854350       5.17512626
C        5.05870664      -5.22252767       3.96796019
O        5.44641146      -5.50653489       2.83624435
N        4.16311074      -4.21517065       4.28893599
C        3.40554444      -3.41942098       3.40706476
C        3.48368933      -3.50195080       2.01485220
C        2.67917610      -2.68930502       1.20699037
C        1.79120117      -1.79120117       1.79120117
C        1.70244493      -1.69508063       3.17666085
C        2.50945404      -2.50663085       3.98062184
N        3.39053837      -7.47938545       4.54025183
C        2.43335188      -8.13373150       3.86851531
N        2.72537034      -8.33968141       2.52768042
C        1.22554799      -8.50069454       4.46106335
C        0.23160001      -9.13401830       3.64289604
N       -0.54901539      -9.69152243       2.99069180
C        1.00890981      -8.22149695       5.83515014
C       -0.27001572      -8.59194609       6.50982083
C       -1.03149863      -7.63456384       7.20867575
C       -2.22386712      -7.97832573       7.85555449
C       -2.69972521      -9.28215026       7.77951085
C       -1.98400125     -10.24638429       7.07966062
C       -0.77071708      -9.90772142       6.46880783
H        6.01165161      -6.93301619       4.86222839
H        6.50646993      -5.36670416       5.52722635
H        3.98959842      -4.08287439       5.27876927
H        4.15955562      -4.19184694       1.51932427
H        2.75602720      -2.77200133       0.12570858
H        1.01114233      -0.99625018       3.64005819
H        2.42195458      -2.41484760       5.06020316
H        2.61250589      -9.29683666       2.21017039
H        3.66233661      -7.98523085       2.33304823
H       -0.70837607      -6.59732878       7.27196844
H       -2.77063433      -7.22038682       8.41167652
H       -2.35748800     -11.26368674       7.00100373
H       -0.23201770     -10.69739676       5.94689443
C       -3.93717454      -9.63360727       8.42665622
C       -4.97353835      -9.92795251       8.96864046
Br      -6.64925099     -10.40388387       9.84498315
C       -0.00445707       0.01189536      -1.78238275
H       -0.66409135       0.67374010      -2.43557963
H        0.65740317      -0.63156657      -2.45157240
C       -0.90989263      -0.90692880      -0.91072765
C        0.90977584       0.90977584      -0.90977584
C       -0.00465871       1.77757030       0.00794375
H       -0.66225468       2.44313916      -0.64384735
H        0.64322798       2.43503045       0.67728295
C       -1.78241447       0.00034974      -0.00472694
H       -2.45427497      -0.65498947       0.64260836
H       -2.43311707       0.67328779      -0.65473579
C       -0.91132561       0.90220522       0.91563759
C       -0.01476271      -0.02253852       1.78660255
H       -0.67934791      -0.69751639       2.42135241
H        0.63392994       0.61504881       2.47327442
C        0.01484550      -1.77751727      -0.01636693
H        0.67870853      -2.42144646      -0.68295456
H       -0.62264859      -2.45592969       0.64226336
C        1.78714474       0.01002794       0.00389507
H        2.44202412       0.67113390       0.66197326
H        2.45385902      -0.65136977      -0.64189061
C        0.91606151      -0.90478549       0.90901405
