177
Properties=species:S:1:pos:R:3 pbc="F F F"
C        0.00000000       0.00000000       0.00000000
N        7.09486243       7.31557598      -0.77444928
C        7.15829118       6.19412345      -1.05425659
C        7.21468683       4.79647282      -1.38822552
C        6.58176140       4.34326191      -2.54913443
S        5.53569523       5.39925738      -3.55656981
C        4.95943712       4.23522208      -4.84792448
C        4.14120768       3.05908849      -4.31918626
O        4.19337862       1.97297926      -4.89312075
N        3.32355527       3.36947001      -3.24448003
C        2.50946061       2.49528226      -2.49757523
C        2.36544788       1.13326592      -2.77206646
C        1.55245661       0.32655645      -1.96674635
C        0.88129715       0.88129715      -0.88129715
C        1.01237578       2.23687631      -0.59522224
C        1.82336150       3.04029680      -1.40333636
N        6.66095563       3.06214804      -2.95735991
C        7.32552898       2.16997784      -2.21037979
N        7.28180373       0.87477808      -2.70643828
C        7.93680006       2.51527265      -1.00552110
C        8.56313139       1.47687290      -0.23879798
N        9.11240067       0.64390740       0.35282130
C        7.90390071       3.86438519      -0.56755892
C        8.54069734       4.27866612       0.71732434
C        7.81232360       4.97302075       1.70331548
C        8.40719262       5.37697369       2.90386528
C        9.73533783       5.05572539       3.15883939
C       10.47635611       4.35243709       2.21646161
C        9.88924435       3.98629864       0.99944289
H        5.82680129       3.85377325      -5.39660958
H        4.32984546       4.78949815      -5.55134476
H        3.36956387       4.32946546      -2.92250068
H        2.87464307       0.66039234      -3.60597933
H        1.45666571      -0.73125941      -2.19861873
H        0.49153906       2.67710350       0.25090394
H        1.91141085       4.09601708      -1.15986534
H        8.18504209       0.41915682      -2.78560196
H        6.78010880       0.87569234      -3.59510248
H        6.76354904       5.22278515       1.55512511
H        7.82353101       5.93811049       3.62992458
H       11.50995139       4.08252608       2.41498707
H       10.51032017       3.45318842       0.28094718
C       10.34378117       5.45197239       4.40237669
C       10.85335247       5.78382925       5.44383918
Br      11.67728617       6.32041373       7.12779594
N       -1.33661831      -5.08284906      -8.76542033
C       -1.23193826      -5.48843775      -7.68629521
C       -1.09313676      -5.96845595      -6.33779246
C       -2.16967939      -5.85031666      -5.45416170
S       -3.66883519      -4.95338092      -5.86930631
C       -4.63196168      -5.09294624      -4.31767576
C       -3.96957826      -4.44760182      -3.10230234
O       -4.14962837      -4.92585531      -1.98399495
N       -3.26490085      -3.28836610      -3.38423837
C       -2.49410507      -2.50906447      -2.49914857
C       -2.35804508      -2.77760534      -1.13512984
C       -1.55407456      -1.96553578      -0.32614907
C       -0.88129715      -0.88129715      -0.88129715
C       -1.00768352      -0.59873306      -2.23805776
C       -1.81367499      -1.41058395      -3.04273572
N       -2.13019537      -6.34733888      -4.20292933
C       -1.01052530      -6.93535495      -3.76000636
N       -1.07617554      -7.34957714      -2.43726740
C        0.13498655      -7.04494612      -4.54763424
C        1.30934557      -7.62552501      -3.96262283
N        2.24065899      -8.14169867      -3.50244709
C        0.11256713      -6.56559365      -5.88281830
C        1.31637610      -6.65787756      -6.76053766
C        1.84087134      -5.51934165      -7.40355857
C        2.96040615      -5.60153306      -8.23917412
C        3.60341173      -6.82140188      -8.41423368
C        3.12482965      -7.96013814      -7.77702310
C        1.98018176      -7.88142977      -6.97485209
H       -4.81812004      -6.15131917      -4.10774491
H       -5.59852964      -4.60209729      -4.47006143
H       -3.25521172      -3.00806058      -4.35825771
H       -2.86192657      -3.61549400      -0.66359418
H       -1.46190367      -2.19469961       0.73257825
H       -0.48511704       0.24609889      -2.67872048
H       -1.89630006      -1.17117144      -4.09982176
H       -0.79814995      -8.31257924      -2.27907167
H       -2.01216112      -7.16254844      -2.07619406
H        1.38333200      -4.54048662      -7.27405445
H        3.32019176      -4.70796657      -8.74394212
H        3.63149903      -8.91406051      -7.89492892
H        1.62735879      -8.80063606      -6.50928414
C        4.76811768      -6.90455998      -9.25693457
C        5.74355891      -6.97420489      -9.96269656
Br       7.32076488      -7.08681483     -11.10385402
N       -9.09388914       4.31150582       1.77949273
C       -8.53627111       3.49243957       2.37796054
C       -7.82692820       2.47151887       3.10093811
C       -6.74040381       2.82983463       3.90391930
S       -6.06517423       4.49342432       3.93292387
C       -4.65294815       4.30562616       5.08400936
C       -3.57991091       3.32603374       4.61353777
O       -2.94132669       2.67775343       5.44039851
N       -3.36882050       3.32457186       3.24411295
C       -2.50636991       2.49210658       2.50384161
C       -1.66514812       1.53296355       3.07266859
C       -0.85280489       0.72879006       2.26416447
C       -0.88129715       0.88129715       0.88129715
C       -1.71222937       1.83353572       0.29870924
C       -2.52052530       2.63689056       1.10957880
N       -6.08242638       1.93371643       4.66432077
C       -6.43960957       0.64284343       4.62343362
N       -5.64659417      -0.18688408       5.40331001
C       -7.47067642       0.18076690       3.80615048
C       -7.73338296      -1.22935004       3.77476936
N       -7.97600292      -2.36355136       3.79103521
C       -8.20793712       1.10551771       3.02238999
C       -9.31658238       0.65551838       2.12993836
C       -9.33326270       0.98781794       0.76094824
C      -10.37694808       0.58139902      -0.07804607
C      -11.40566616      -0.20337825       0.42993592
C      -11.40837323      -0.56736045       1.77131880
C      -10.38394077      -0.12413232       2.61629165
H       -5.02971584       3.98625507       6.06121321
H       -4.17928083       5.28493731       5.20647023
H       -3.95419018       3.95693225       2.71040758
H       -1.61600242       1.37895397       4.14605836
H       -0.20719785      -0.01217638       2.72900356
H       -1.74004581       1.95819059      -0.78049778
H       -3.16219758       3.37299406       0.63210162
H       -6.15914568      -0.79899755       6.02965274
H       -4.96385806       0.38144779       5.90559777
H       -8.53503574       1.57932458       0.31684875
H      -10.37333312       0.88166808      -1.12328428
H      -12.19963222      -1.19467316       2.17253133
H      -10.43405199      -0.41589528       3.66440471
C      -12.46989970      -0.64044523      -0.43607760
C      -13.36119530      -1.00648882      -1.16136393
Br     -14.80234489      -1.59835035      -2.33409057
N        2.41037678      -3.46745102       9.30705988
C        1.97178549      -4.03585797       8.39902776
C        1.42127994      -4.71872027       7.25938496
C        2.25424237      -5.03692438       6.18299099
S        3.95318370      -4.46631885       6.07201987
C        4.46713499      -5.13093751       4.44451117
C        3.66778890      -4.59134370       3.26034983
O        3.47650022      -5.30523745       2.27774096
N        3.28922644      -3.26421487       3.38406400
C        2.49244094      -2.50735945       2.50251772
C        1.98155273      -2.99275884       1.29646868
C        1.17793209      -2.18205178       0.48577554
C        0.88129715      -0.88129715       0.88129715
C        1.38393401      -0.38162206       2.07891826
C        2.18847859      -1.19343905       2.88507702
N        1.81842485      -5.74121812       5.12082061
C        0.53320409      -6.11512925       5.05755328
N        0.19604325      -6.77987702       3.88709982
C       -0.38690843      -5.79062733       6.05387490
C       -1.75705339      -6.17163195       5.86422371
N       -2.85346929      -6.52607877       5.73087729
C        0.04956911      -5.08283130       7.20344441
C       -0.90086995      -4.71041289       8.29249617
C       -1.02477999      -3.37692964       8.72987922
C       -1.90330661      -3.02340069       9.76020695
C       -2.70761258      -3.99432312      10.34551328
C       -2.62600028      -5.31577805       9.92255382
C       -1.71617749      -5.67224395       8.92003364
H        4.38942969      -6.22292105       4.46483338
H        5.51779255      -4.86842163       4.28447418
H        3.56949636      -2.80756415       4.24446950
H        2.18526133      -4.00228885       0.95346457
H        0.79017281      -2.58176998      -0.44791776
H        1.15633101       0.63307736       2.39448497
H        2.56873836      -0.78198306       3.81657185
H       -0.29221539      -7.65897993       4.02303632
H        1.03493489      -6.89786921       3.31809952
H       -0.43229502      -2.58159811       8.28190597
H       -1.95121406      -1.98934880      10.09358218
H       -3.26320635      -6.07775739      10.36293936
H       -1.67035733      -6.72144074       8.63147800
C       -3.62757076      -3.62942828      11.39151935
C       -4.39803573      -3.32382884      12.26754944
Br      -5.64381244      -2.82970041      13.68401599
