169
Properties=species:S:1:pos:R:3 pbc="F F F"
C        0.00000000       0.00000000       0.00000000
N        7.09486243       7.31557598      -0.77444928
C        7.15829118       6.19412345      -1.05425659
C        7.21468683       4.79647282      -1.38822552
C        6.58176140       4.34326191      -2.54913443
S        5.53569523       5.39925738      -3.55656981
C        4.95943712       4.23522208      -4.84792448
C        4.14120768       3.05908849      -4.31918626
O        4.19337862       1.97297926      -4.89312075
N        3.32355527       3.36947001      -3.24448003
C        2.50946061       2.49528226      -2.49757523
C        2.36544788       1.13326592      -2.77206646
C        1.55245661       0.32655645      -1.96674635
C        0.88129715       0.88129715      -0.88129715
C        1.01237578       2.23687631      -0.59522224
C        1.82336150       3.04029680      -1.40333636
N        6.66095563       3.06214804      -2.95735991
C        7.32552898       2.16997784      -2.21037979
N        7.28180373       0.87477808      -2.70643828
C        7.93680006       2.51527265      -1.00552110
C        8.56313139       1.47687290      -0.23879798
N        9.11240067       0.64390740       0.35282130
C        7.90390071       3.86438519      -0.56755892
C        8.54069734       4.27866612       0.71732434
C        7.81232360       4.97302075       1.70331548
C        8.40719262       5.37697369       2.90386528
C        9.73533783       5.05572539       3.15883939
Br      10.53372458       5.57567249       4.79058327
C       10.47635611       4.35243709       2.21646161
C        9.88924435       3.98629864       0.99944289
H        5.82680129       3.85377325      -5.39660958
H        4.32984546       4.78949815      -5.55134476
H        3.36956387       4.32946546      -2.92250068
H        2.87464307       0.66039234      -3.60597933
H        1.45666571      -0.73125941      -2.19861873
H        0.49153906       2.67710350       0.25090394
H        1.91141085       4.09601708      -1.15986534
H        8.18504209       0.41915682      -2.78560196
H        6.78010880       0.87569234      -3.59510248
H        6.76354904       5.22278515       1.55512511
H        7.82353101       5.93811049       3.62992458
H       11.50995139       4.08252608       2.41498707
H       10.51032017       3.45318842       0.28094718
N       -2.15998063      -3.77704879      -9.24785827
C       -1.78719192      -4.32227002      -8.29720928
C       -1.31789367      -4.97609428      -7.10539722
C       -2.21014148      -5.20902060      -6.05499567
S       -3.88476848      -4.56106638      -6.04568756
C       -4.49811091      -5.12861567      -4.41585710
C       -3.72714007      -4.57112324      -3.22121912
O       -3.61096874      -5.24748458      -2.20102531
N       -3.28399601      -3.26854963      -3.38495968
C       -2.49267947      -2.50778562      -2.50185301
C       -2.05686845      -2.95981979      -1.25409203
C       -1.25323333      -2.14880698      -0.44371910
C       -0.88129715      -0.88129715      -0.88129715
C       -1.30859221      -0.41499111      -2.12089101
C       -2.11339565      -1.22686680      -2.92673220
N       -1.85292586      -5.88277705      -4.94476067
C       -0.58985364      -6.30866143      -4.80737155
N       -0.33399590      -6.93379067      -3.59523353
C        0.38619646      -6.06959887      -5.77419139
C        1.72824207      -6.50052301      -5.50652133
N        2.80072888      -6.89565159      -5.30856406
C        0.03225893      -5.39626810      -6.97183566
C        1.04475062      -5.11488452      -8.03190523
C        1.24758887      -3.80913443      -8.52048332
C        2.18491644      -3.54084054      -9.52437693
C        2.96907580      -4.57108559     -10.03021404
Br       4.25484022      -4.20743111     -11.36622291
C        2.80961964      -5.86731139      -9.55463984
C        1.84212666      -6.13844010      -8.57978666
H       -4.46902680      -6.22273940      -4.38541792
H       -5.54176731      -4.81395810      -4.31496294
H       -3.50588268      -2.83955831      -4.27608902
H       -2.32062899      -3.94306591      -0.87731985
H       -0.92466335      -2.52231240       0.52295073
H       -1.02193663       0.57362119      -2.46942318
H       -2.43404540      -0.84187145      -3.89137642
H        0.11945650      -7.83842478      -3.67083258
H       -1.20117726      -6.98957022      -3.06015613
H        0.67283810      -2.96950045      -8.13454672
H        2.29387270      -2.52594959      -9.89964004
H        3.43018314      -6.67524901      -9.93242453
H        1.73650688      -7.17056197      -8.24850632
N       -9.14746562       4.14856425       1.88885782
C       -8.55838403       3.35576047       2.49252673
C       -7.81033861       2.36737121       3.22167536
C       -6.71470767       2.76767448       3.99177560
S       -6.07677774       4.44601332       3.96873136
C       -4.63556931       4.31554334       5.09147102
C       -3.55132529       3.34952441       4.61863273
O       -2.88013001       2.73437337       5.44497525
N       -3.37057683       3.32177513       3.24515335
C       -2.50610339       2.49205656       2.50415814
C       -1.63104873       1.56484475       3.07488679
C       -0.81880530       0.76075395       2.26620016
C       -0.88129715       0.88129715       0.88129715
C       -1.74621549       1.80152434       0.29673449
C       -2.55434284       2.60493983       1.10771199
N       -6.01999583       1.90373589       4.75673186
C       -6.34872577       0.60468886       4.75247199
N       -5.52011367      -0.18946718       5.53237360
C       -7.38689765       0.10157923       3.96911692
C       -7.61829269      -1.31434897       3.97485854
N       -7.83479473      -2.45297847       4.02167051
C       -8.16201665       0.99185566       3.18197251
C       -9.27966265       0.49740333       2.32497314
C       -9.33410568       0.79822390       0.94969930
C      -10.38662775       0.34997438       0.14369890
C      -11.38586443      -0.44566691       0.69202631
Br     -12.79378611      -1.07544365      -0.39952866
C      -11.35069317      -0.77920682       2.04084525
C      -10.31811427      -0.29445693       2.85244275
H       -4.98332980       4.01009229       6.08376203
H       -4.18156794       5.30760286       5.18151756
H       -3.98174447       3.92881683       2.71096871
H       -1.55472043       1.43626101       4.15003331
H       -0.14649772       0.04493534       2.73259197
H       -1.80069025       1.90110802      -0.78405965
H       -3.22288707       3.31569924       0.62870696
H       -6.00472841      -0.79844635       6.18351881
H       -4.83946277       0.40502520       6.00641565
H       -8.55946424       1.39704042       0.47470441
H      -10.41290551       0.62654704      -0.90773561
H      -12.11850874      -1.41462690       2.47360856
H      -10.33843826      -0.56349050       3.90761365
N        2.96772237      -2.86685810       9.35030722
C        2.39857908      -3.46737159       8.54072056
C        1.68684255      -4.19077401       7.52176862
C        2.38456816      -4.67705935       6.41253024
S        4.10824471      -4.28026952       6.10300819
C        4.40802965      -5.12748123       4.50707280
C        3.55022582      -4.61880673       3.35044987
O        3.20687772      -5.39326447       2.45933644
N        3.30028528      -3.25627762       3.38094240
C        2.49210728      -2.50637316       2.50383766
C        1.83037550      -3.04334152       1.39706324
C        1.02669854      -2.23329917       0.58576170
C        0.88129715      -0.88129715       0.88129715
C        1.53527811      -0.33011724       1.97907898
C        2.33935012      -1.14173653       2.78590800
N        1.79202745      -5.42584611       5.46259003
C        0.47921756      -5.68137477       5.54529429
N       -0.02224962      -6.40950273       4.47576698
C       -0.31193323      -5.18752656       6.58200047
C       -1.72146188      -5.45295921       6.54730495
N       -2.85191690      -5.71293931       6.54246436
C        0.28977568      -4.42782587       7.61824328
C       -0.51862810      -3.87564130       8.74502593
C       -0.48596617      -2.50381451       9.06418054
C       -1.23018207      -1.98216415      10.12831895
C       -2.05628771      -2.81936850      10.86914303
Br      -3.08354248      -2.11320223      12.28915405
C       -2.12851553      -4.17405197      10.56679515
C       -1.35089699      -4.69916936       9.52782773
H        4.23913243      -6.20153799       4.63651369
H        5.45763800      -4.97956793       4.23348244
H        3.69832633      -2.75582219       4.16738149
H        1.91353943      -4.09324696       1.13422836
H        0.52004236      -2.67347515      -0.26949248
H        1.42627952       0.72480576       2.21626486
H        2.83936873      -0.68940220       3.63852233
H       -0.56922391      -7.22390624       4.73511853
H        0.74622261      -6.65420793       3.85047307
H        0.12787394      -1.80907986       8.49425528
H       -1.15761180      -0.92340343      10.36592530
H       -2.78456319      -4.83215452      11.12989906
H       -1.42262588      -5.76890846       9.33627883
