170
Properties=species:S:1:pos:R:3 pbc="F F F"
C       -0.70107554       3.71241028      -3.66757054
O       -0.12162225       2.79233708      -2.75240152
C        1.24440926       2.71732685      -2.70147849
C        2.11146968       3.48492764      -3.48214650
C        3.49927255       3.34089370      -3.36048523
C        4.06075795       2.43277698      -2.44837044
C        3.18683483       1.65419837      -1.67518262
C        1.79900249       1.79900249      -1.79900249
C        5.58735161       2.30539503      -2.36115628
C        6.15357732       2.04319539      -0.93573309
Cl       7.95135781       2.04259081      -0.91913535
Cl       5.62029235       3.29980740       0.23243281
C        6.09841904       1.28631481      -3.38602550
C        6.95109080       1.70286228      -4.41975104
C        7.44428816       0.79006408      -5.36023373
C        7.08812991      -0.55904180      -5.29695975
O        7.53843539      -1.51254421      -6.17029856
C        8.00702783      -1.05694933      -7.43333006
C        6.24752376      -0.98189694      -4.25951206
C        5.75432450      -0.07160846      -3.31568030
H       -1.78858408       3.63479749      -3.57564148
H       -0.43602223       3.46195463      -4.69994510
H       -0.41925588       4.74189237      -3.42395366
H        1.74171580       4.20886690      -4.20164616
H        4.14238133       3.95289711      -3.99216474
H        3.56931357       0.92342681      -0.96755766
H        5.98252680       3.29031226      -2.65539934
H        5.83775508       1.07517605      -0.53613160
H        7.25760964       2.74535006      -4.49766606
H        8.12134279       1.16356131      -6.12243314
H        8.14896992      -1.93385863      -8.07321298
H        8.97664687      -0.55734584      -7.33566379
H        7.27322521      -0.40438060      -7.92027850
H        5.09544787      -0.43449497      -2.53107320
C        5.84865086      -2.35938160      -4.12898836
C        5.51459482      -3.51302500      -4.01967476
Br       4.97445444      -5.37836880      -3.84292391
C        0.19719087      -4.86025364      -2.01584252
O       -0.21378864      -3.54631116      -1.66301655
C       -1.41280452      -3.10006609      -2.15034398
C       -2.26532805      -3.84632562      -2.96689015
C       -3.47644516      -3.30645333      -3.41775300
C       -3.87514221      -2.00902236      -3.05774080
C       -3.01042631      -1.25762782      -2.24816171
C       -1.79900249      -1.79900249      -1.79900249
C       -5.20673710      -1.46025075      -3.58691507
C       -5.98756628      -0.54278889      -2.60215063
Cl      -7.58906837      -0.06160480      -3.26241080
Cl      -6.29370872      -1.36152781      -1.03243041
C       -5.00783299      -0.80463412      -4.95829224
C       -5.64901482      -1.33776801      -6.08692129
C       -5.49639769      -0.74962306      -7.34856523
C       -4.69021911       0.37883839      -7.51466713
O       -4.50193116       1.01703511      -8.71129369
C       -4.75599999       0.26177592      -9.88918448
C       -4.05837219       0.92215792      -6.38892461
C       -4.21092933       0.33749956      -5.12496656
H        1.16832996      -5.04376831      -1.54641653
H        0.32813695      -4.95530699      -3.09870747
H       -0.50394260      -5.60914261      -1.63350494
H       -2.01867969      -4.85721314      -3.27633602
H       -4.11089372      -3.91763432      -4.05891514
H       -3.26268253      -0.24176925      -1.95584625
H       -5.84992369      -2.34153091      -3.73678379
H       -5.44903187       0.38396704      -2.38399790
H       -6.29212677      -2.21239095      -5.99610804
H       -6.03703457      -1.18892489      -8.18137778
H       -4.38408566       0.83817902     -10.74241764
H       -5.83083139       0.11040703     -10.03454046
H       -4.22046708      -0.69447221      -9.87418382
H       -3.69634001       0.78058199      -4.27626807
C       -3.22133491       2.08980636      -6.48672908
C       -2.52031619       3.06771193      -6.56864032
Br      -1.38682820       4.64890253      -6.70108386
C        0.66922826       3.30045537       4.04767817
O        0.10156869       2.52123688       3.00344816
C       -1.25495441       2.57992073       2.82833946
C       -2.12243305       3.35576771       3.60034306
C       -3.49982391       3.35412956       3.34669802
C       -4.04892144       2.58481420       2.30816973
C       -3.17628547       1.79678896       1.54314140
C       -1.79900249       1.79900249       1.79900249
C       -5.56578138       2.60980414       2.07831740
C       -6.01564414       2.52573894       0.59112272
Cl      -7.79721948       2.69594381       0.41992067
Cl      -5.26853968       3.82234781      -0.40322056
C       -6.25691181       1.55902188       2.95482566
C       -7.16416601       1.96355577       3.94598234
C       -7.82047739       1.02376399       4.75034460
C       -7.57734729      -0.34242653       4.59112709
O       -8.18829368      -1.32085374       5.32874980
C       -8.73285187      -0.93350703       6.58406373
C       -6.68225212      -0.75175953       3.59464628
C       -6.02583927       0.18583103       2.78672603
H        1.74983163       3.12892786       4.04275865
H        0.28752744       2.98819187       5.02521308
H        0.50124186       4.36903588       3.87879614
H       -1.76119975       3.97704755       4.41398155
H       -4.14453223       3.96737058       3.97554038
H       -3.55184625       1.16890981       0.73954198
H       -5.90070528       3.59858566       2.42894745
H       -5.74804445       1.57025852       0.13075975
H       -7.38582356       3.01969773       4.09510447
H       -8.53167227       1.39241626       5.48324870
H       -9.00937014      -1.84493254       7.12388668
H       -9.64235815      -0.33823167       6.45083834
H       -7.99477642      -0.39730401       7.19165070
H       -5.32964973      -0.16865664       2.03103301
C       -6.39286236      -2.14433496       3.36973023
C       -6.15049843      -3.31061688       3.18136303
Br      -5.75861645      -5.19639611       2.87678920
C       -0.44802470      -4.59479402       2.53213596
O        0.04754446      -3.37225851       2.00331338
C        1.32903924      -3.01157787       2.32259749
C        2.18795499      -3.76240233       3.12818649
C        3.48654946      -3.31386553       3.40023650
C        3.96760800      -2.10705240       2.86724496
C        3.09786344      -1.34917556       2.06917682
C        1.79900249      -1.79900249       1.79900249
C        5.39463729      -1.65501662       3.20424901
C        6.15067841      -0.92511096       2.05671642
Cl       7.85228718      -0.55612286       2.50467393
Cl       6.20747030      -1.91909199       0.56110465
C        5.40712249      -0.85299156       4.51064530
C        6.11067773      -1.34032755       5.62269884
C        6.15077536      -0.62057194       6.82323868
C        5.47928573       0.59813250       6.94489462
O        5.48196772       1.36496606       8.07918808
C        5.78629666       0.70382532       9.30093722
C        4.78625677       1.09483102       5.83371313
C        4.74618863       0.37830949       4.63051720
H       -1.47680849      -4.71804290       2.18062047
H       -0.47130292      -4.57067035       3.62651007
H        0.13298844      -5.44747540       2.16612631
H        1.87955750      -4.70672277       3.56594858
H        4.12395343      -3.92464161       4.03884815
H        3.41411563      -0.39888471       1.64729770
H        5.96230720      -2.58131112       3.38462007
H        5.68367188       0.02845673       1.79384758
H        6.65325215      -2.28319234       5.56418127
H        6.73231892      -1.03280178       7.64221653
H        5.56469482       1.39603226      10.11966172
H        6.85091023       0.45341467       9.35746925
H        5.16267600      -0.18684945       9.43959766
H        4.18909257       0.78997437       3.79290789
C        4.08071820       2.34903248       5.88657190
C        3.48982966       3.39942619       5.93084111
Br       2.53441285       5.09782400       6.00242068
C       -0.00445707       0.01189536      -1.78238275
H       -0.66409135       0.67374010      -2.43557963
H        0.65740317      -0.63156657      -2.45157240
C       -0.90989263      -0.90692880      -0.91072765
C        0.90977584       0.90977584      -0.90977584
C       -0.00465871       1.77757030       0.00794375
H       -0.66225468       2.44313916      -0.64384735
H        0.64322798       2.43503045       0.67728295
C       -1.78241447       0.00034974      -0.00472694
H       -2.45427497      -0.65498947       0.64260836
H       -2.43311707       0.67328779      -0.65473579
C       -0.91132561       0.90220522       0.91563759
C       -0.01476271      -0.02253852       1.78660255
H       -0.67934791      -0.69751639       2.42135241
H        0.63392994       0.61504881       2.47327442
C        0.01484550      -1.77751727      -0.01636693
H        0.67870853      -2.42144646      -0.68295456
H       -0.62264859      -2.45592969       0.64226336
C        1.78714474       0.01002794       0.00389507
H        2.44202412       0.67113390       0.66197326
H        2.45385902      -0.65136977      -0.64189061
C        0.91606151      -0.90478549       0.90901405
