125
Properties=species:S:1:pos:R:3 pbc="F F F"
C        0.00000000       0.00000000       0.00000000
Cl       1.49356040       6.51867351      -2.35588060
C        3.04102039       5.61722215      -2.42870848
P        3.02258367       4.66794558      -3.99313794
O        4.34330137       5.35207067      -4.39296364
O        3.39242786       3.28847056      -3.15690974
C        2.49605910       2.51882259      -2.46120271
C        1.14804908       2.82807876      -2.29081776
C        0.33933671       2.00962514      -1.49542704
C        0.88068186       0.88068186      -0.88068186
C        2.22357630       0.55846602      -1.06233234
C        3.02876272       1.38110831      -1.85346094
O        3.00548016       3.78766393      -5.44386780
C        1.82907835       3.23273110      -5.87018810
C        0.58761225       3.83239732      -5.65536893
C       -0.57644062       3.18201702      -6.07259837
C       -0.48684023       1.95371336      -6.72594252
C        0.75565514       1.37444907      -6.97867537
C        1.91674870       2.01987139      -6.55062636
H        3.09756047       5.00670299      -1.52433422
H        3.84133932       6.36216255      -2.37991898
H        0.68664002       3.69634835      -2.74256287
H       -0.70914422       2.26349777      -1.35207156
H        2.65337670      -0.32027223      -0.58957362
H        4.08009325       1.13668669      -1.98564449
H        0.49589309       4.80338298      -5.17806011
H       -1.54372570       3.64032317      -5.89002143
H        0.83169511       0.42404900      -7.50026643
H        2.88967785       1.57048937      -6.73699968
C       -1.68830849       1.28140944      -7.14793952
C       -2.69453816       0.71835492      -7.50136200
Br      -4.32152644      -0.19205663      -8.07281627
Cl      -3.99039475      -0.54187145      -5.83584830
C       -3.36507761      -2.19327326      -5.52860016
P       -4.46409065      -2.94584906      -4.27372748
O       -4.73260667      -4.11012414      -5.24560487
O       -3.14341236      -3.33782538      -3.35657041
C       -2.47222483      -2.47851888      -2.52534071
C       -2.75752870      -1.12149279      -2.38792411
C       -1.95757008      -0.31974227      -1.56707655
C       -0.88068186      -0.88068186      -0.88068186
C       -0.60243753      -2.24012796      -1.00180917
C       -1.40083563      -3.03618843      -1.82630791
O       -5.48323246      -3.64372221      -3.11005722
C       -5.97206339      -2.86021158      -2.09972258
C       -6.28977518      -1.51261284      -2.27299048
C       -6.73472696      -0.76086238      -1.18258542
C       -6.88567360      -1.36963704       0.06249499
C       -6.60904454      -2.72604968       0.22631463
C       -6.15332469      -3.47265381      -0.86126795
H       -2.32273128      -2.08726593      -5.21860046
H       -3.37663847      -2.71753513      -6.48924725
H       -3.57784580      -0.64203356      -2.90567188
H       -2.17421028       0.74275361      -1.47496843
H        0.23266728      -2.68635276      -0.46899261
H       -1.17658513      -4.09511173      -1.93072756
H       -6.21114037      -1.02579793      -3.24039789
H       -6.96544388       0.29209131      -1.31326633
H       -6.73874181      -3.20865744       1.19138871
H       -5.92769604      -4.52980769      -0.73966317
C       -7.33674297      -0.59102640       1.18672890
C       -7.71451357       0.06106001       2.12827480
Br      -8.32533668       1.11542859       3.65067489
Cl      -1.57817665       6.53411070       2.25582715
C       -3.10532121       5.60379159       2.37783823
P       -3.03663418       4.68693190       3.96010111
O       -4.36273707       5.35267066       4.37292795
O       -3.39499648       3.28374461       3.15906707
C       -2.49721153       2.51810783       2.46076505
C       -1.15938436       2.85053738       2.25702386
C       -0.35021047       2.03235736       1.46182108
C       -0.88068186       0.88068186       0.88068186
C       -2.21290963       0.53562740       1.09583763
C       -3.01872835       1.35797809       1.88662553
O       -2.97293251       3.83671127       5.42736810
C       -1.77731066       3.31397352       5.84071337
C       -0.55274518       3.93368291       5.58895041
C        0.63228451       3.31510698       5.99535229
C        0.58054884       2.09874507       6.67461941
C       -0.64470624       1.50017651       6.96389684
C       -1.82689212       2.11363613       6.54671820
H       -3.16742384       4.97408814       1.48708570
H       -3.92136686       6.33156526       2.33048873
H       -0.70677416       3.73675816       2.68201892
H        0.68986545       2.30402962       1.29226094
H       -2.63412889      -0.36085605       0.64940526
H       -4.06206571       1.09547034       2.04488838
H       -0.49018973       4.89643584       5.09071063
H        1.58628050       3.78872557       5.78417383
H       -0.69112691       0.55920843       7.50567521
H       -2.78663525       1.64890294       6.76162870
C        1.80351729       1.45909324       7.08546452
C        2.82775337       0.92338483       7.42954729
Br       4.48385648       0.05718964       7.98590003
Cl       5.07162012      -0.35409775       4.94239664
C        4.09253617      -1.84042701       5.15398785
P        4.70509718      -3.05183820       3.92673181
O        4.96992989      -4.04238977       5.07601602
O        3.15679150      -3.28873896       3.39227770
C        2.48348829      -2.46823558       2.52436053
C        2.97869053      -1.26664629       2.02160877
C        2.17417376      -0.46890830       1.20130683
C        0.88068186      -0.88068186       0.88068186
C        0.38794024      -2.08929808       1.36713633
C        1.19289471      -2.88055646       2.18988080
O        5.27314268      -4.17520033       2.78866887
C        5.65000707      -3.73252966       1.54946083
C        6.24715360      -2.48907946       1.33914544
C        6.55742797      -2.08148114       0.03926566
C        6.29509201      -2.93171976      -1.03399612
C        5.73768532      -4.19142660      -0.82033233
C        5.41744732      -4.59212398       0.47767514
H        3.04566507      -1.55336765       5.02956496
H        4.23006088      -2.16244465       6.19091533
H        3.97262050      -0.90418680       2.24874394
H        2.55909588       0.47637947       0.82370870
H       -0.61737303      -2.41942869       1.12062243
H        0.80427132      -3.81833725       2.57981586
H        6.49044366      -1.82434624       2.16254629
H        7.00619088      -1.10668138      -0.12625336
H        5.54443574      -4.86367450      -1.65209970
H        4.97487428      -5.57041477       0.65187784
C        6.60832657      -2.50630045      -2.37358655
C        6.87066051      -2.15001178      -3.49549354
Br       7.29483230      -1.57392314      -5.30952225
