138
Properties=species:S:1:pos:R:3 pbc="F F F"
Cl       2.40346442       7.42857753      -3.26578462
C        3.95092441       6.52712618      -3.33861251
P        3.93248769       5.57784961      -4.90304196
O        5.25320540       6.26197470      -5.30286766
O        4.30233188       4.19837458      -4.06681376
C        3.40596313       3.42872662      -3.37110674
C        2.05795311       3.73798278      -3.20072178
C        1.24924074       2.91952917      -2.40533106
C        1.79058588       1.79058588      -1.79058588
C        3.13348033       1.46837004      -1.97223636
C        3.93866674       2.29101234      -2.76336497
O        3.91538418       4.69756796      -6.35377182
C        2.73898237       4.14263513      -6.78009213
C        1.49751627       4.74230134      -6.56527296
C        0.33346340       4.09192104      -6.98250240
C        0.42306379       2.86361738      -7.63584655
Br      -1.15435881       1.98094122      -8.18989164
C        1.66555917       2.28435310      -7.88857939
C        2.82665273       2.92977541      -7.46053038
H        4.00746449       5.91660701      -2.43423825
H        4.75124334       7.27206658      -3.28982301
H        1.59654405       4.60625237      -3.65246689
H        0.20075981       3.17340179      -2.26197558
H        3.56328073       0.58963180      -1.49947765
H        4.98999728       2.04659071      -2.89554851
H        1.40579712       5.71328701      -6.08796414
H       -0.63382167       4.55022719      -6.79992545
H        1.74159914       1.33395302      -8.41017045
H        3.79958187       2.48039339      -7.64690370
Cl      -7.37656496      -2.21038981      -3.51087181
C       -6.23177766      -2.85456827      -4.73031718
P       -5.73618994      -4.52025903      -4.15693029
O       -6.22007688      -5.09767753      -5.50029334
O       -4.14398108      -4.10041908      -4.32312006
C       -3.41861340      -3.36842209      -3.41876100
C       -3.93833247      -2.80166638      -2.25665882
C       -3.12380031      -2.00751074      -1.44278992
C       -1.79058588      -1.79058588      -1.79058588
C       -1.26250561      -2.36929590      -2.94228522
C       -2.08062166      -3.15768057      -3.75474181
O       -5.27662511      -6.06488833      -3.62521051
C       -5.09649411      -6.27977937      -2.28543615
C       -5.85820734      -5.63984410      -1.30703913
C       -5.58299500      -5.86844320       0.04355135
C       -4.56961654      -6.75586227       0.40295109
Br      -4.19251585      -7.05517423       2.23121603
C       -3.83665657      -7.42782761      -0.57400747
C       -4.10501604      -7.18923524      -1.92270723
H       -5.41246934      -2.13606715      -4.80977326
H       -6.76334072      -2.86281432      -5.68697788
H       -4.96738727      -2.93710423      -1.95077181
H       -3.53788995      -1.55376753      -0.54447970
H       -0.22453879      -2.20802775      -3.21982363
H       -1.67205302      -3.59968492      -4.66039856
H       -6.67346634      -4.97005575      -1.56352617
H       -6.16416856      -5.35725130       0.80508888
H       -3.05530155      -8.13137562      -0.29904544
H       -3.53211839      -7.70366498      -2.69109559
Cl      -3.16973494       7.44346442       2.48462722
C       -4.50266949       6.34670718       2.96728643
P       -4.07966832       5.70546556       4.62824538
O       -5.42563483       6.24294682       5.14946610
O       -4.31928537       4.15924362       4.08899124
C       -3.41527610       3.42188074       3.36863964
C       -2.18536278       3.89535484       2.91594004
C       -1.37290540       3.07954642       2.12164915
C       -1.79058588       1.79058588       1.79058588
C       -3.01151588       1.30729050       2.25528035
C       -3.82193416       2.12694306       3.04416682
O       -3.68740409       5.11083242       6.16848745
C       -2.38029950       4.82456580       6.45684432
C       -1.31247610       5.55644046       5.93617401
C       -0.00172610       5.17388237       6.23227837
C        0.22868176       4.08255280       7.06865668
Br       2.00342386       3.56081897       7.45907894
C       -0.83806729       3.37712288       7.62330148
C       -2.14668611       3.75337636       7.31689605
H       -4.58505630       5.58324839       2.19000506
H       -5.42107838       6.94174001       2.95031454
H       -1.82348289       4.88972944       3.14205099
H       -0.42029019       3.45884746       1.75699953
H       -3.34396069       0.30375252       2.00467697
H       -4.78068948       1.75440980       3.39703722
H       -1.46840135       6.42928020       5.30936672
H        0.82956607       5.73273389       5.81316315
H       -0.66389406       2.53456040       8.28726816
H       -2.98448581       3.20302876       7.73936439
Cl       6.02443895      -1.26562758       5.80776005
C        5.03353429      -2.74059953       6.04252928
P        5.62311757      -3.96917037       4.82109132
O        5.88951347      -4.95138326       5.97715103
O        4.06768500      -4.19642821       4.30340702
C        3.39392101      -3.37775857       3.43411690
C        3.89557311      -2.18565566       2.91542891
C        3.09084384      -1.38806475       2.09519238
C        1.79058588      -1.79058588       1.79058588
C        1.29117455      -2.98989082       2.29302136
C        2.09642515      -3.78098397       3.11563492
O        6.16985536      -5.10844508       3.68842352
C        6.53912487      -4.68096613       2.44161863
C        7.14586563      -3.44523285       2.21399209
C        7.44764992      -3.05276190       0.90747503
C        7.16724683      -3.91048889      -0.15520800
Br       7.56707580      -3.37233805      -1.92293979
C        6.60012192      -5.16282135       0.07554838
C        6.28842178      -5.54831540       1.38022134
H        3.98826626      -2.44484298       5.92520051
H        5.17782687      -3.05418643       7.08111963
H        4.89495132      -1.83048983       3.12982216
H        3.48100965      -0.45002834       1.70509919
H        0.28053348      -3.31280441       2.05905228
H        1.70274514      -4.71136369       3.51802767
H        7.40312933      -2.77515258       3.02876635
H        7.90392984      -2.08383489       0.72856624
H        6.39274498      -5.84096649      -0.74798886
H        5.83838052      -6.52071034       1.56778810
C       -0.00445707       0.01189536      -1.78238275
H       -0.66409135       0.67374010      -2.43557963
H        0.65740317      -0.63156657      -2.45157240
C       -0.90989263      -0.90692880      -0.91072765
C        0.90977584       0.90977584      -0.90977584
C       -0.00465871       1.77757030       0.00794375
H       -0.66225468       2.44313916      -0.64384735
H        0.64322798       2.43503045       0.67728295
C       -1.78241447       0.00034974      -0.00472694
H       -2.45427497      -0.65498947       0.64260836
H       -2.43311707       0.67328779      -0.65473579
C       -0.91132561       0.90220522       0.91563759
C       -0.01476271      -0.02253852       1.78660255
H       -0.67934791      -0.69751639       2.42135241
H        0.63392994       0.61504881       2.47327442
C        0.01484550      -1.77751727      -0.01636693
H        0.67870853      -2.42144646      -0.68295456
H       -0.62264859      -2.45592969       0.64226336
C        1.78714474       0.01002794       0.00389507
H        2.44202412       0.67113390       0.66197326
H        2.45385902      -0.65136977      -0.64189061
C        0.91606151      -0.90478549       0.90901405
