85
Properties=species:S:1:pos:R:3 pbc="F F F"
C        0.00000000       0.00000000       0.00000000
Cl      -3.21435303       2.21839332      -4.38058713
C       -3.19522221       1.32766514      -2.84562936
C       -1.76864748       0.93179576      -2.52898340
O       -1.36615236      -0.21496359      -2.70252752
N       -0.99617546       2.00061720      -2.08777656
C        0.38064250       1.87170020      -1.75968612
C        0.89123763       0.89123763      -0.89123763
C        2.27339265       0.78805123      -0.67163778
C        3.16745225       1.66953959      -1.28897526
C        4.64233720       1.55729570      -1.03910397
C        2.65788606       2.70280952      -2.07926498
C        1.28089990       2.80571291      -2.30484828
Br       0.67764882       4.23504417      -3.41011934
H       -3.82110571       0.43571405      -2.93621223
H       -3.59806654       1.97074955      -2.05762038
H       -1.25041203       2.88673207      -2.51811881
H        2.65693074       0.02330660       0.00216026
H        5.21096830       1.89742409      -1.91112029
H        4.92824809       0.51660513      -0.85273934
H        4.92416120       2.16295846      -0.17257649
H        3.33880468       3.42301276      -2.52868127
Cl       3.20319206      -2.17973836      -4.40808113
C        3.18736835      -1.29691459      -2.86852604
C        1.76043693      -0.90993234      -2.54263627
O        1.35125237       0.23562594      -2.70828988
N        0.99565375      -1.98490078      -2.10297128
C       -0.38011011      -1.86466842      -1.76725028
C       -0.89123763      -0.89123763      -0.89123763
C       -2.27276090      -0.79621225      -0.66410850
C       -3.16547382      -1.67910422      -1.28138906
C       -4.63961627      -1.57564772      -1.02347288
C       -2.65470906      -2.70574259      -2.07950890
C       -1.27838644      -2.80048097      -2.31259368
Br      -0.67353619      -4.22109564      -3.42818049
H        3.80825082      -0.40133712      -2.95773427
H        3.59747982      -1.94192518      -2.08585805
H        1.25218389      -2.86751462      -2.53910812
H       -2.65673286      -0.03685914       0.01551492
H       -5.21095246      -1.91424353      -1.89431669
H       -4.92984732      -0.53738639      -0.83035886
H       -4.91394500      -2.18712549      -0.15862566
H       -3.33424852      -3.42711878      -2.52913142
Cl       2.71139164       5.11083637       0.98518270
C        2.68666917       3.58399710       0.08074435
C        1.68498623       2.65045110       0.72666681
O        2.04263806       1.72033848       1.44371115
N        0.36672317       3.00167782       0.45726365
C       -0.74330112       2.28622988       0.98249781
C       -0.89123763       0.89123763       0.89123763
C       -1.98472013       0.25251439       1.49584714
C       -2.96012984       0.98796403       2.17787323
C       -4.13077467       0.29636674       2.81159547
C       -2.86627771       2.38182865       2.19185420
C       -1.77477318       3.02190251       1.59478540
Br      -1.72045505       4.92416886       1.67818841
H        3.68374589       3.13564483       0.09892163
H        2.40447108       3.79060066      -0.95582618
H        0.22575740       4.00581405       0.37438219
H       -2.08747903      -0.82894674       1.41954480
H       -4.47993866       0.84973894       3.68983508
H       -3.85373666      -0.70734295       3.15119886
H       -4.95237036       0.21353334       2.09379245
H       -3.64203152       2.96893608       2.67953112
Cl      -1.14355985       1.11842827       5.64661554
C       -1.61006770       1.36376690       3.95190688
C       -0.48223214       0.88710751       3.06147133
O        0.28289145       1.67652751       2.51504763
N       -0.39793463      -0.49914108       2.99101185
C        0.60183450      -1.17230818       2.23788613
C        0.89123763      -0.89123763       0.89123763
C        1.94084964      -1.55470960       0.23752241
C        2.70258965      -2.52342329       0.89995416
C        3.81562942      -3.23443610       0.18867135
C        2.35936169      -2.87199994       2.20859894
C        1.31699197      -2.20900535       2.86546376
Br       0.93093635      -2.73751136       4.65436462
H       -1.80174758       2.42621679       3.77878493
H       -2.52333434       0.79634348       3.74998122
H       -0.66513545      -0.96391003       3.85566426
H        2.15634951      -1.32713903      -0.80541146
H        4.60366032      -3.52383370       0.89201866
H        4.27611978      -2.58447368      -0.56300088
H        3.43299337      -4.13239002      -0.30568724
H        2.91430473      -3.65594585       2.72024814
