113
Properties=species:S:1:pos:R:3 pbc="F F F"
C        0.00000000       0.00000000       0.00000000
C        0.88141534       0.88141534      -0.88141534
C        1.97143281       0.32458817      -1.54529842
C        2.77854865       1.13238380      -2.35289120
C        2.50438744       2.50169494      -2.50422231
C        1.40065942       3.04197222      -1.82551389
C        0.59134275       2.23673162      -1.01711780
C        3.33241192       3.36112665      -3.34094015
N        3.23676680       4.65029417      -3.59728600
N        4.27709032       4.95861069      -4.45257644
C        4.93603944       3.83639246      -4.66018282
O        4.39170480       2.77601466      -3.98393915
C        6.11542867       3.57185905      -5.47411730
C        6.72210928       4.62007737      -6.18421182
C        7.85403057       4.39175465      -6.97173367
C        8.39477347       3.11052835      -7.05982068
C        7.80027110       2.06401391      -6.35944226
C        6.66993571       2.28609626      -5.57134628
H        2.20297012      -0.73267808      -1.44315039
H        3.62535216       0.67668491      -2.86252469
H        1.16261132       4.10080169      -1.92310611
H       -0.25814834       2.67750469      -0.50147328
H        6.31287300       5.62855022      -6.12713772
H        8.31218054       5.21462098      -7.51553094
H        9.27509719       2.93906449      -7.67396111
H        6.22255670       1.45344107      -5.03339141
C        8.35619005       0.73862478      -6.44831165
C        8.82177218      -0.37138861      -6.52273977
Br       9.57457910      -2.16618639      -6.64308374
C       -0.88141534      -0.88141534      -0.88141534
C       -1.71399372      -0.29576953      -1.83155615
C       -2.52116615      -1.10363697      -2.63902053
C       -2.50387882      -2.50175362      -2.50467226
C       -1.65720876      -3.07072421      -1.54021256
C       -0.84855140      -2.26552824      -0.73111253
C       -3.33671948      -3.36184768      -3.33591157
N       -3.45859825      -4.67398654      -3.35176217
N       -4.38376976      -4.97036511      -4.33414258
C       -4.76270634      -3.81887811      -4.85103027
O       -4.13743491      -2.74979259      -4.26443110
C       -5.71502921      -3.53070347      -5.91567233
C       -6.39252062      -4.58449146      -6.54938639
C       -7.31055497      -4.33387297      -7.57309095
C       -7.56338148      -3.02450381      -7.97723721
C       -6.89638998      -1.97228580      -7.35505149
C       -5.97874036      -2.21650011      -6.33213777
H       -1.74409437       0.78408909      -1.95343715
H       -3.16438166      -0.62511793      -3.37506217
H       -1.62188162      -4.15226062      -1.41237688
H       -0.20076106      -2.72887611       0.00880754
H       -6.20732717      -5.61485126      -6.24638251
H       -7.82715837      -5.16138489      -8.05378920
H       -8.27830093      -2.83582361      -8.77399824
H       -5.46962937      -1.37891745      -5.86084236
C       -7.15495799      -0.61790663      -7.77026187
C       -7.37150870       0.51638592      -8.11800056
Br      -7.72165288       2.35044104      -8.68026461
C       -0.88141534       0.88141534       0.88141534
C       -0.33316294       1.99415487       1.51400160
C       -1.14105798       2.80153415       2.32123150
C       -2.50189077       2.50490636       2.50350757
C       -3.03347807       1.37815098       1.85651648
C       -2.22817037       0.56865651       1.04836529
C       -3.36135269       3.33301090       3.34011513
N       -4.64114124       3.21251269       3.63069303
N       -4.95476707       4.26690521       4.46660516
C       -3.84508880       4.95908365       4.62844227
O       -2.78795244       4.42333842       3.94036775
C       -3.59086850       6.16580133       5.40473519
C       -4.63308124       6.75656789       6.13674935
C       -4.41443167       7.91412183       6.88896539
C       -3.14911958       8.49703539       6.91896753
C       -2.10875014       7.91881652       6.19616061
C       -2.32115394       6.76283418       5.44339012
H        0.71746016       2.24329570       1.38760689
H       -0.69209410       3.66618458       2.80628308
H       -4.08557643       1.12226630       1.97867639
H       -2.66221856      -0.29865467       0.55726573
H       -5.62915108       6.31446521       6.12494465
H       -5.23241458       8.35933136       7.45058653
H       -2.98517577       9.39728632       7.50566070
H       -1.49362310       6.32903406       4.88673201
C       -0.79991278       8.51859557       6.22461815
C        0.29623852       9.02091052       6.24845134
Br       2.06862246       9.83311132       6.28698759
C        0.88141534      -0.88141534       0.88141534
C        0.29995318      -1.86877170       1.67259452
C        1.10782801      -2.67621760       2.47977804
C        2.50177656      -2.50472758       2.50380055
C        3.06655920      -1.50312045       1.69846588
C        2.26134882      -0.69392969       0.88991366
C        3.36180799      -3.33525127       3.33741946
N        4.67023682      -3.31987355       3.49423659
N        4.96860764      -4.31875048       4.40091934
C        3.82193476      -4.87579005       4.73488991
O        2.75420931      -4.30083565       4.09661365
C        3.53767580      -5.97297721       5.65075201
C        4.59001383      -6.59682583       6.33955881
C        4.34308034      -7.65119070       7.22324784
C        3.03890899      -8.09631495       7.42989856
C        1.98817507      -7.48422879       6.75132340
C        2.22872017      -6.43083302       5.86782506
H       -0.77663733      -2.01977926       1.67030051
H        0.63261370      -3.44169474       3.09025333
H        4.14480293      -1.34597714       1.69573905
H        2.72141830       0.07514769       0.27455901
H        5.61632735      -6.26193679       6.19029680
H        5.16940142      -8.12373762       7.74919342
H        2.85308175      -8.91678236       8.11825867
H        1.39239244      -5.96814949       5.34884725
C        0.63917355      -7.94174814       6.96220480
C       -0.49061522      -8.32492059       7.13881797
Br      -2.31738810      -8.94447803       7.42438652
