134
Properties=species:S:1:pos:R:3 pbc="F F F"
C        1.79131937       1.79131937      -1.79131937
C        2.88133683       1.23449220      -2.45520245
C        3.68845267       2.04228782      -3.26279522
C        3.41429147       3.41159896      -3.41412634
C        2.31056344       3.95187625      -2.73541791
C        1.50124677       3.14663564      -1.92702183
C        4.24231595       4.27103067      -4.25084417
N        4.14667082       5.56019819      -4.50719002
N        5.18699434       5.86851472      -5.36248047
C        5.84594347       4.74629648      -5.57008684
O        5.30160882       3.68591868      -4.89384317
C        7.02533269       4.48176307      -6.38402132
C        7.63201330       5.52998140      -7.09411585
C        8.76393460       5.30165868      -7.88163769
C        9.30467749       4.02043238      -7.96972470
C        8.71017512       2.97391794      -7.26934628
C        7.57983973       3.19600028      -6.48125031
H        3.11287415       0.17722595      -2.35305442
H        4.53525619       1.58658893      -3.77242871
H        2.07251535       5.01070571      -2.83301013
H        0.65175568       3.58740871      -1.41137730
H        7.22277703       6.53845425      -7.03704174
H        9.22208457       6.12452500      -8.42543497
H       10.18500121       3.84896851      -8.58386513
H        7.13246073       2.36334509      -5.94329543
C        9.26609408       1.64852881      -7.35821568
C        9.73167620       0.53851541      -7.43264380
Br      10.48448312      -1.25628237      -7.55298777
C       -1.79131937      -1.79131937      -1.79131937
C       -2.69381849      -1.20340460      -2.67380839
C       -3.50097326      -2.01125728      -3.48130516
C       -3.41391696      -3.41162624      -3.41447357
C       -2.49743254      -3.98288168      -2.51754338
C       -1.68859714      -3.17769831      -1.70860879
C       -4.24544524      -4.27173406      -4.24701149
N       -4.30829237      -5.58611116      -4.31965550
N       -5.26470607      -5.88125305      -5.27203040
C       -5.71962194      -4.72681461      -5.71589024
O       -5.11632074      -3.65693365      -5.10811629
C       -6.73355431      -4.43622489      -6.72133789
C       -7.39189563      -5.49118577      -7.37302915
C       -8.36796446      -5.23829860      -8.34096791
C       -8.69884682      -3.92544020      -8.67054754
C       -8.05145936      -2.87202195      -8.02995803
C       -7.07610253      -3.11850119      -7.06248660
H       -2.77863106      -0.12178057      -2.74274288
H       -4.19948455      -1.53095084      -4.16383844
H       -2.40704569      -5.06620161      -2.44298389
H       -0.98602479      -3.64282489      -1.02169202
H       -7.14596326      -6.52426363      -7.12804612
H       -8.86875803      -6.06676757      -8.83651894
H       -9.45864494      -3.73499963      -9.42419029
H       -6.58368886      -2.27991275      -6.57549964
C       -8.39063838      -1.51402174      -8.36817844
C       -8.67470080      -0.37669657      -8.65143803
Br      -9.13400572       1.46226203      -9.10944483
C       -1.79131937       1.79131937       1.79131937
C       -1.27097046       2.96099890       2.33906211
C       -2.07887154       3.76834504       3.14631913
C       -3.41187141       3.41488645       3.41325891
C       -3.91558116       2.23130140       2.85097504
C       -3.11019658       1.42167030       2.04303737
C       -4.27083422       4.24188693       4.25146964
N       -5.52678926       4.07371163       4.61355814
N       -5.85307336       5.15327316       5.41164300
C       -4.77413138       5.90672996       5.48146545
O       -3.72583321       5.38877509       4.76676237
C       -4.54485294       7.16310979       6.18315436
C       -5.57895239       7.73895727       6.93820089
C       -5.38379203       8.94329929       7.62013965
C       -4.15044672       9.58860580       7.55578206
C       -3.11838253       9.02566021       6.80939660
C       -3.30742185       7.82316471       6.12650375
H       -0.24217286       3.25470672       2.14627493
H       -1.65196876       4.67803417       3.56427090
H       -4.94570939       1.93057489       3.03994691
H       -3.52238188       0.50974859       1.61841123
H       -6.55014488       7.24830730       6.99982083
H       -6.19508642       9.37617821       8.20077991
H       -4.00467247      10.52503109       8.08813129
H       -2.48695072       7.40239353       5.54975700
C       -1.84257339       9.68985309       6.74041209
C       -0.77408323      10.24611462       6.68263756
Br       0.95357498      11.14554247       6.58922103
C        1.79131937      -1.79131937       1.79131937
C        1.21897491      -2.82758256       2.52447401
C        2.02685856      -3.63500334       3.33167381
C        3.41171773      -3.41470287       3.41359617
C        3.96738249      -2.36427944       2.66619567
C        3.16214392      -1.55496983       1.85779049
C        4.27159896      -4.24428458       4.24830725
N        5.57209564      -4.18788539       4.45407801
N        5.87470236      -5.20842930       5.33485786
C        4.73829022      -5.81820853       5.60582805
O        3.67348963      -5.25855269       4.94932836
C        4.46236726      -6.95814261       6.47060723
C        5.51180747      -7.56905604       7.17524704
C        5.27272173      -8.66369257       8.01081667
C        3.97942364      -9.16261695       8.15279398
C        2.93165591      -8.56377298       7.45801045
C        3.16439095      -7.47034017       6.62235919
H        0.14951158      -3.01686732       2.47677561
H        1.55884978      -4.43916352       3.89626053
H        5.03844871      -2.16862135       2.70916113
H        3.61506908      -0.74757541       1.28789721
H        6.52965787      -7.19230504       7.07631010
H        6.09665862      -9.12555114       8.54983477
H        3.79966950     -10.01422186       8.80394350
H        2.33057761      -7.01894915       6.08957448
C        1.59389637      -9.07683894       7.60210325
C        0.47352276      -9.50653168       7.72278097
Br      -1.33802662     -10.20130850       7.91790664
C       -0.00445707       0.01189536      -1.78238275
H       -0.66409135       0.67374010      -2.43557963
H        0.65740317      -0.63156657      -2.45157240
C       -0.90989263      -0.90692880      -0.91072765
C        0.90977584       0.90977584      -0.90977584
C       -0.00465871       1.77757030       0.00794375
H       -0.66225468       2.44313916      -0.64384735
H        0.64322798       2.43503045       0.67728295
C       -1.78241447       0.00034974      -0.00472694
H       -2.45427497      -0.65498947       0.64260836
H       -2.43311707       0.67328779      -0.65473579
C       -0.91132561       0.90220522       0.91563759
C       -0.01476271      -0.02253852       1.78660255
H       -0.67934791      -0.69751639       2.42135241
H        0.63392994       0.61504881       2.47327442
C        0.01484550      -1.77751727      -0.01636693
H        0.67870853      -2.42144646      -0.68295456
H       -0.62264859      -2.45592969       0.64226336
C        1.78714474       0.01002794       0.00389507
H        2.44202412       0.67113390       0.66197326
H        2.45385902      -0.65136977      -0.64189061
C        0.91606151      -0.90478549       0.90901405
