105
Properties=species:S:1:pos:R:3 pbc="F F F"
C        0.00000000       0.00000000       0.00000000
C        0.88141534       0.88141534      -0.88141534
C        1.97143281       0.32458817      -1.54529842
C        2.77854865       1.13238380      -2.35289120
C        2.50438744       2.50169494      -2.50422231
C        1.40065942       3.04197222      -1.82551389
C        0.59134275       2.23673162      -1.01711780
C        3.33241192       3.36112665      -3.34094015
N        3.23676680       4.65029417      -3.59728600
N        4.27709032       4.95861069      -4.45257644
C        4.93603944       3.83639246      -4.66018282
O        4.39170480       2.77601466      -3.98393915
C        6.11542867       3.57185905      -5.47411730
C        6.72210928       4.62007737      -6.18421182
C        7.85403057       4.39175465      -6.97173367
C        8.39477347       3.11052835      -7.05982068
C        7.80027110       2.06401391      -6.35944226
Br       8.53033238       0.32344495      -6.47615010
C        6.66993571       2.28609626      -5.57134628
H        2.20297012      -0.73267808      -1.44315039
H        3.62535216       0.67668491      -2.86252469
H        1.16261132       4.10080169      -1.92310611
H       -0.25814834       2.67750469      -0.50147328
H        6.31287300       5.62855022      -6.12713772
H        8.31218054       5.21462098      -7.51553094
H        9.27509719       2.93906449      -7.67396111
H        6.22255670       1.45344107      -5.03339141
C       -0.88141534      -0.88141534      -0.88141534
C       -1.88018145      -0.30169539      -1.65944256
C       -2.68731448      -1.10952244      -2.46698672
C       -2.50420210      -2.50169632      -2.50440628
C       -1.49159395      -3.06479917      -1.71175241
C       -0.68251226      -2.25960543      -0.90307448
C       -3.33392831      -3.36160598      -3.33894443
N       -3.31544668      -4.66956085      -3.49933943
N       -4.31491192      -4.96802151      -4.40534402
C       -4.87451739      -3.82174043      -4.73635689
O       -4.30147861      -2.75430749      -4.09587250
C       -5.97334329      -3.53773170      -5.65033004
C       -6.60522658      -4.59129658      -6.32987531
C       -7.66126178      -4.34461814      -7.21163897
C       -8.09977138      -3.03943677      -7.42591435
C       -7.47946906      -1.98744828      -6.75680993
Br      -8.07086860      -0.21442914      -7.04462968
C       -6.42459529      -2.22776770      -5.87501526
H       -2.04031979       0.77350090      -1.64662354
H       -3.46195590      -0.63570747      -3.06689839
H       -1.32540134      -4.14166111      -1.71945668
H        0.09548419      -2.71831302      -0.29800079
H       -6.27554393      -5.61840509      -6.17461191
H       -8.14021415      -5.17191730      -7.73020101
H       -8.92140931      -2.85378827      -8.11292521
H       -5.95524804      -1.39042245      -5.36371868
C       -0.88141534       0.88141534       0.88141534
C       -0.39849423       2.10516497       1.33766020
C       -1.20639837       2.91247716       2.14494811
C       -2.50206126       2.50505029       2.50319315
C       -2.96838437       1.26750306       2.03225809
C       -2.16289891       0.45774331       1.22454995
C       -3.36034509       3.33099771       3.34313592
N       -4.58443779       3.11760045       3.78230872
N       -4.92762741       4.22102643       4.53962362
C       -3.88975292       5.03259458       4.51026722
O       -2.85328251       4.53152008       3.76685601
C       -3.69379279       6.33606635       5.13154588
C       -4.71719125       6.89783571       5.91137152
C       -4.55341073       8.14654536       6.51756280
C       -3.36262847       8.85094570       6.35154833
C       -2.34151857       8.30241255       5.57979615
Br      -0.72380516       9.25477954       5.35134272
C       -2.49934763       7.05581159       4.97221903
H        0.60102487       2.44119508       1.07327222
H       -0.80908911       3.86493603       2.49053662
H       -3.96904236       0.92419434       2.29328242
H       -2.54575920      -0.49654028       0.87161071
H       -5.65526105       6.36120594       6.05209395
H       -5.35587984       8.56778682       7.11866580
H       -3.24112546       9.82167302       6.82532430
H       -1.68819309       6.64733777       4.37385831
C        0.88141534      -0.88141534       0.88141534
C        0.32893910      -1.98339422       1.52898609
C        1.13683274      -2.79077953       2.33621137
C        2.50187831      -2.50489156       2.50353482
C        3.03768614      -1.38887628       1.84158310
C        2.23239030      -0.57940773       1.03339414
C        3.36141488      -3.33320431       3.33985954
N        4.64482139      -3.22172121       3.61780436
N        4.95652405      -4.27135379       4.46039961
C        3.84217776      -4.95194418       4.63849278
O        2.78370092      -4.41283561       3.95512207
C        3.58416878      -6.14927015       5.42796609
C        4.62762709      -6.74286470       6.15590668
C        4.40540970      -7.89157056       6.92053863
C        3.13522846      -8.46267814       6.96721590
C        2.09358399      -7.88156415       6.24857912
Br       0.36814419      -8.65321801       6.30856523
C        2.30953695      -6.73437805       5.48346324
H       -0.72498748      -2.22411285       1.41431707
H        0.68452961      -3.64691856       2.83311359
H        4.09311010      -1.14146586       1.95194317
H        2.66974798       0.27947283       0.53055448
H        5.62748632      -6.30994817       6.13112644
H        5.22441911      -8.33911723       7.47879612
H        2.96852465      -9.35608805       7.56351008
H        1.48092279      -6.29810851       4.93035788
