190
Properties=species:S:1:pos:R:3 pbc="F F F"
C        1.79254044       1.79254044      -1.79254044
C        2.38400477       1.25620124      -2.93308165
C        3.18038700       2.06874499      -3.74157844
C        3.38460914       3.42274465      -3.42653901
C        2.79461455       3.93772287      -2.26199677
C        1.99892021       3.12710444      -1.44799683
C        4.20480103       4.33152094      -4.33968596
H        4.24847045       5.33702922      -3.89918440
C        3.63143469       4.40888406      -5.75527100
C        4.63704818       3.64416627      -6.55414868
N        5.79654888       3.47112798      -5.89751413
N        5.57311819       3.85552519      -4.51972910
C        6.58664810       4.01579889      -3.58952784
O        6.42049521       4.58550579      -2.50715268
C        7.95816493       3.50487533      -3.89593753
C        9.05986941       4.23343734      -3.42413865
C       10.36191101       3.80007672      -3.68904080
C       10.56515645       2.63043524      -4.42171130
Cl      12.16845586       2.10697567      -4.76862172
C        9.48108510       1.87929431      -4.86983218
C        8.17972581       2.30890113      -4.59093508
C        4.40616605       3.05213740      -7.87770945
C        3.19601227       3.23585428      -8.55891734
C        2.96602353       2.62899241      -9.80064691
C        3.95287407       1.83448652     -10.37591767
Br       3.63837402       1.00322205     -12.04340196
C        5.16744080       1.64472288      -9.72913196
C        5.38798035       2.25335761      -8.48982909
H        2.24005609       0.21628739      -3.20633494
H        3.65660223       1.65497864      -4.63019206
H        2.96610413       4.97501637      -1.98420460
H        1.55278763       3.54690922      -0.55221667
H        3.61329411       5.44966403      -6.10096342
H        2.61561442       4.00940540      -5.82632037
H        8.89324262       5.14749422      -2.85980441
H       11.20493461       4.38087873      -3.32958620
H        9.62837594       0.96845812      -5.44209233
H        7.33116426       1.72075947      -4.93383288
H        2.41374960       3.85013914      -8.12424097
H        2.01411883       2.78423111     -10.29735019
H        5.94943771       1.02930702     -10.16122963
H        6.34049345       2.09416629      -7.98357783
C       -1.79254044      -1.79254044      -1.79254044
C       -2.37891624      -2.93649196      -1.25787946
C       -3.19256398      -3.73341747      -2.06472898
C       -3.43683020      -3.39154063      -3.40552197
C       -2.82034376      -2.24475314      -3.92923730
C       -2.00258126      -1.44554321      -3.12589702
C       -4.37450282      -4.22595238      -4.27555273
H       -4.40883657      -3.79170755      -5.28413995
C       -5.78787218      -4.31003369      -3.69768388
C       -5.86608462      -5.73045251      -3.23882600
N       -4.89886648      -6.49913791      -3.76718658
N       -3.93961401      -5.61449823      -4.39426024
C       -2.91956726      -6.04719335      -5.22521422
O       -2.27668017      -5.28432388      -5.95214963
C       -2.57770410      -7.50190467      -5.27936902
C       -2.16763656      -8.04329041      -6.50651842
C       -1.84261445      -9.39864532      -6.60976876
C       -1.92009885     -10.21560046      -5.48160369
Cl      -1.54200490     -11.89043417      -5.61161417
C       -2.29523161      -9.68576753      -4.24921244
C       -2.60643004      -8.32613956      -4.14699242
C       -6.81968813      -6.26017490      -2.25614987
C       -7.82694237      -5.45528323      -1.70855830
C       -8.70360751      -5.95533701      -0.73671833
C       -8.58214831      -7.27339332      -0.30773664
Br      -9.75408978      -7.94466938       1.01376114
C       -7.60069745      -8.09837136      -0.84222683
C       -6.72955198      -7.59071220      -1.81090287
H       -2.21457533      -3.22341206      -0.22469103
H       -3.64678750      -4.63676986      -1.65821556
H       -2.97185538      -1.98035013      -4.97311959
H       -1.53621247      -0.56332529      -3.55237577
H       -6.53109276      -4.14546437      -4.48736443
H       -5.96810776      -3.57949036      -2.90374206
H       -2.11638156      -7.40163439      -7.38252530
H       -1.54004579      -9.80696288      -7.56839087
H       -2.36015600     -10.31322941      -3.36554098
H       -2.89321769      -7.90813006      -3.18440886
H       -7.93500912      -4.42391101      -2.02920958
H       -9.46678443      -5.30259824      -0.32631747
H       -7.49000863      -9.12874407      -0.52122166
H       -5.95631420      -8.24105350      -2.22086987
C       -1.79254044       1.79254044       1.79254044
C       -1.57516009       3.16716533       1.83096225
C       -2.39041347       3.97020072       2.63009624
C       -3.43399997       3.41224506       3.38764777
C       -3.62314684       2.02221540       3.34897196
C       -2.80743272       1.21400928       2.55257948
C       -4.36730228       4.29265729       4.21604836
H       -5.09499792       3.65419513       4.73549102
C       -5.10068637       5.33006225       3.36484113
C       -4.44731008       6.60905984       3.77899322
N       -3.75310187       6.48889786       4.92319124
N       -3.65284554       5.07546557       5.22006136
C       -3.19492747       4.57110868       6.42593868
O       -3.35323978       3.39483167       6.76508223
C       -2.49443633       5.47716779       7.38737367
C       -2.68906880       5.26788006       8.76049653
C       -2.06082653       6.09141598       9.69878601
C       -1.22882543       7.12369199       9.26478558
Cl      -0.47186934       8.15367209      10.41851180
C       -1.00080309       7.32406801       7.90534048
C       -1.62041195       6.48923317       6.96991691
C       -4.45968895       7.86221966       3.01410429
C       -5.18551620       7.98314500       1.82212270
C       -5.15458125       9.16726741       1.07381419
C       -4.39794871      10.24711086       1.51821870
Br      -4.34326592      11.83940273       0.50232937
C       -3.67811080      10.16015147       2.70303337
C       -3.71396209       8.97429831       3.44290664
H       -0.78171447       3.62838627       1.25257769
H       -2.22073437       5.04573937       2.67529919
H       -4.40546467       1.56764649       3.95221394
H       -2.97211448       0.14145641       2.53834263
H       -6.16237013       5.36324812       3.63830330
H       -5.03219978       5.12694853       2.29219187
H       -3.34428339       4.46570084       9.09055702
H       -2.23117894       5.92663578      10.75758483
H       -0.35636313       8.12545900       7.55710425
H       -1.43889536       6.63908483       5.90777641
H       -5.77918676       7.15026670       1.45867625
H       -5.72085437       9.22460247       0.15024329
H       -3.08255779      10.99091895       3.06649762
H       -3.14051700       8.90966695       4.36805362
C        1.79254044      -1.79254044       1.79254044
C        2.54993402      -1.21523552       2.80811812
C        3.34605318      -2.02645586       3.61820139
C        3.38540050      -3.41834617       3.43014614
C        2.62896390      -3.97695860       2.38841170
C        1.83275915      -3.16824281       1.57301952
C        4.20696042      -4.31733007       4.35171744
H        4.10743622      -5.35929528       4.01795257
C        3.78186442      -4.19788959       5.81583574
C        4.93485083      -3.47103271       6.42947959
N        6.02955341      -3.48524547       5.65039210
N        5.62585118      -3.97379055       4.34873074
C        6.51525862      -4.32861482       3.34810139
O        6.18179438      -4.97839446       2.35296484
C        7.95402845      -3.93876197       3.46618737
C        8.92488933      -4.82157158       2.97098448
C       10.28308620      -4.50510483       3.06283750
C       10.67361220      -3.29888164       3.64480916
Cl      12.34727988      -2.91727750       3.77949586
C        9.71985710      -2.39785367       4.11250083
C        8.36121342      -2.71201517       4.00633344
C        4.90299627      -2.73408432       7.69893231
C        3.75973796      -2.72273128       8.50831465
C        3.72152589      -1.97901944       9.69511751
C        4.83512558      -1.24207109      10.08608159
Br       4.77977578      -0.22660309      11.67861914
C        5.98697259      -1.24461530       9.30970775
C        6.01591937      -1.98884989       8.12639778
H        2.53579410      -0.14459390       2.98229042
H        3.95099677      -1.58235982       4.40841633
H        2.67013338      -5.04835512       2.20683659
H        1.25625500      -3.62218423       0.77347429
H        3.70098968      -5.19306147       6.26987041
H        2.82213842      -3.68820156       5.94100021
H        8.61285696      -5.76260429       2.52507999
H       11.02392582      -5.20354910       2.68792463
H       10.01328203      -1.45720471       4.56843965
H        7.61384202      -2.00730311       4.36461147
H        2.88074328      -3.28951011       8.21787632
H        2.81707411      -1.98444818      10.29417784
H        6.86553946      -0.67693543       9.59749946
H        6.92034079      -1.98048615       7.51741062
C       -0.00445707       0.01189536      -1.78238275
H       -0.66409135       0.67374010      -2.43557963
H        0.65740317      -0.63156657      -2.45157240
C       -0.90989263      -0.90692880      -0.91072765
C        0.90977584       0.90977584      -0.90977584
C       -0.00465871       1.77757030       0.00794375
H       -0.66225468       2.44313916      -0.64384735
H        0.64322798       2.43503045       0.67728295
C       -1.78241447       0.00034974      -0.00472694
H       -2.45427497      -0.65498947       0.64260836
H       -2.43311707       0.67328779      -0.65473579
C       -0.91132561       0.90220522       0.91563759
C       -0.01476271      -0.02253852       1.78660255
H       -0.67934791      -0.69751639       2.42135241
H        0.63392994       0.61504881       2.47327442
C        0.01484550      -1.77751727      -0.01636693
H        0.67870853      -2.42144646      -0.68295456
H       -0.62264859      -2.45592969       0.64226336
C        1.78714474       0.01002794       0.00389507
H        2.44202412       0.67113390       0.66197326
H        2.45385902      -0.65136977      -0.64189061
C        0.91606151      -0.90478549       0.90901405
