177
Properties=species:S:1:pos:R:3 pbc="F F F"
C        0.00000000       0.00000000       0.00000000
C        0.88263642       0.88263642      -0.88263642
C        1.47410074       0.34629722      -2.02317763
C        2.27048297       1.15884096      -2.83167442
C        2.47470512       2.51284063      -2.51663499
C        1.88471053       3.02781885      -1.35209274
C        1.08901619       2.21720042      -0.53809280
C        3.29489701       3.42161691      -3.42978194
H        3.33856642       4.42712520      -2.98928037
C        2.72153066       3.49898004      -4.84536698
C        3.72714415       2.73426224      -5.64424466
N        4.88664485       2.56122395      -4.98761010
N        4.66321416       2.94562116      -3.60982508
C        5.67674408       3.10589487      -2.67962381
O        5.51059119       3.67560177      -1.59724865
C        7.04826090       2.59497131      -2.98603351
C        8.14996538       3.32353332      -2.51423462
C        9.45200698       2.89017269      -2.77913678
C        9.65525243       1.72053122      -3.51180728
Cl      11.25855183       1.19707164      -3.85871769
C        8.57118108       0.96939029      -3.95992815
C        7.26982179       1.39899711      -3.68103105
C        3.49626202       2.14223338      -6.96780543
C        2.28610825       2.32595026      -7.64901331
C        2.05611951       1.71908838      -8.89074288
C        3.04297005       0.92458249      -9.46601365
C        4.25753678       0.73481886      -8.81922793
C        4.47807632       1.34345358      -7.57992507
H        1.33015207      -0.69361663      -2.29643092
H        2.74669821       0.74507461      -3.72028804
H        2.05620011       4.06511234      -1.07430057
H        0.64288361       2.63700520       0.35768736
H        2.70339009       4.53976001      -5.19105939
H        1.70571039       3.09950138      -4.91641634
H        7.98333859       4.23759019      -1.94990039
H       10.29503059       3.47097471      -2.41968218
H        8.71847192       0.05855409      -4.53218830
H        6.42126024       0.81085545      -4.02392885
H        1.50384558       2.94023512      -7.21433694
H        1.10421481       1.87432709      -9.38744617
H        5.03953369       0.11940299      -9.25132560
H        5.43058942       1.18426227      -7.07367380
C        2.80329441       0.29108868     -10.73677766
C        2.60256607      -0.23946239     -11.80104253
Br       2.27800531      -1.09731859     -13.52186879
C       -0.88263642      -0.88263642      -0.88263642
C       -0.83564712      -2.26685988      -0.74106859
C       -1.65116139      -3.06805444      -1.54178253
C       -2.52651624      -2.49685994      -2.48080456
C       -2.54377325      -1.10054450      -2.62030437
C       -1.72685546      -0.29464503      -1.82280891
C       -3.46483967      -3.36491895      -3.31653724
H       -4.04506885      -2.71962554      -3.99027760
C       -4.41175517      -4.20024931      -2.45387320
C       -3.88131647      -5.58540083      -2.63893376
N       -3.05506496      -5.68667969      -3.69373425
N       -2.74687742      -4.34124430      -4.13053868
C       -2.09880657      -4.04523572      -5.31822047
O       -2.07048100      -2.91025521      -5.80270539
C       -1.41471761      -5.13622025      -6.07832786
C       -1.42834565      -5.07971373      -7.47967394
C       -0.80775498      -6.07843796      -8.23512351
C       -0.16437729      -7.13424397      -7.58896967
Cl       0.58122172      -8.37767189      -8.51789100
C       -0.11519977      -7.18737098      -6.19792877
C       -0.72555010      -6.17882072      -5.44547913
C       -4.13471056      -6.72412512      -1.74746515
C       -4.99752744      -6.61413042      -0.64941396
C       -5.19776001      -7.69165495       0.22346419
C       -4.53730049      -8.89566399      -0.00060171
C       -3.68542312      -9.03758983      -1.08857062
C       -3.49075654      -7.95676107      -1.95393737
H       -0.17499580      -2.73732603      -0.02064453
H       -1.61311689      -4.15294851      -1.44599545
H       -3.19152898      -0.64097310      -3.36311095
H       -1.75691427       0.78288582      -1.94817300
H       -5.43238663      -4.14946765      -2.85235521
H       -4.43772819      -3.87367146      -1.41022846
H       -1.93765764      -4.25739007      -7.97578146
H       -0.83782805      -6.02926685      -9.31859257
H        0.38157320      -8.00545466      -5.68533286
H       -0.68297617      -6.21409260      -4.35897576
H       -5.51917009      -5.68178503      -0.45746251
H       -5.86558191      -7.57014791       1.06974176
H       -3.16165896      -9.96806481      -1.28053851
H       -2.81477783      -8.07206560      -2.80168207
C       -4.73347635     -10.00007407       0.90238966
C       -4.89777363     -10.92501751       1.65864493
Br      -5.16342844     -12.42057282       2.88144574
C       -0.88263642       0.88263642       0.88263642
C       -1.56206558       1.96034321       0.32116681
C       -2.37512104       2.75693009       1.12894722
C       -2.52602354       2.47997758       2.49817962
C       -1.81701045       1.40045179       3.04715989
C       -0.99953085       0.60201334       2.24276522
C       -3.46143462       3.31082196       3.37403927
H       -3.41581895       2.93409789       4.40505515
C       -4.90663603       3.28451793       2.87472372
C       -5.09127937       4.66982522       2.34454647
N       -4.14258213       5.51910373       2.77379304
N       -3.10133876       4.72549289       3.39182875
C       -2.06419020       5.26011780       4.13795475
O       -1.33989302       4.57643234       4.86711625
C       -1.80414571       6.73197287       4.09314714
C       -1.35976481       7.36456278       5.26340574
C       -1.10812201       8.73928181       5.27391263
C       -1.29372664       9.48455338       4.10931091
Cl      -1.00610302      11.18217458       4.12606357
C       -1.70423219       8.86507862       2.93118870
C       -1.94179282       7.48691111       2.92114602
C       -6.12581466       5.08948194       1.39100422
C       -7.11338536       4.20082679       0.94685967
C       -8.06892752       4.59571629       0.00130696
C       -8.04701197       5.89156174      -0.50500751
C       -7.08703185       6.79808298      -0.07353126
C       -6.13672658       6.39512972       0.86959867
H       -1.47094455       2.19586102      -0.73383922
H       -2.90200063       3.60935350       0.70070672
H       -1.89605623       1.18869342       4.11086338
H       -0.46067405      -0.22753271       2.68906011
H       -5.59510342       3.12547113       3.71363494
H       -5.08746097       2.50078814       2.13337901
H       -1.22410778       6.77810645       6.16861495
H       -0.77785271       9.21792552       6.18990924
H       -1.85311599       9.43620091       2.01989742
H       -2.25598853       6.99923635       2.00081966
H       -7.14433605       3.18526159       1.32882000
H       -8.81447852       3.87990501      -0.32839546
H       -7.05342906       7.81277407      -0.45594085
H       -5.38103197       7.10907333       1.19842019
C       -9.02153581       6.29500735      -1.48538240
C       -9.83769953       6.63289305      -2.30644637
Br     -11.15736723       7.17922565      -3.63403736
C        0.88263642      -0.88263642       0.88263642
C        2.23331681      -0.57932878       1.03093001
C        3.03281704      -1.38189587       1.84628544
C        2.49140954      -2.48486714       2.52790406
C        1.13194028      -2.78368318       2.34899866
C        0.32838023      -1.98464195       1.53128723
C        3.34729150      -3.33014004       3.46886432
H        2.73233510      -4.14218854       3.88044836
C        3.95100878      -2.50719126       4.60767764
C        5.39982060      -2.46321085       4.24261960
N        5.72975406      -3.38421640       3.32150845
N        4.49583112      -3.92814791       2.79468137
C        4.43122225      -5.04831086       1.98272965
O        3.37885848      -5.65129856       1.75328456
C        5.68190157      -5.58452482       1.36283933
C        5.80533573      -6.97316402       1.20923358
C        6.95729216      -7.52349256       0.64053173
C        7.98739202      -6.68368213       0.21651678
Cl       9.41701468      -7.36088450      -0.46355801
C        7.86600970      -5.30099684       0.33349298
C        6.70592789      -4.75342348       0.89049858
C        6.37775034      -1.48789821       4.74065228
C        6.02948725      -0.52999448       5.70159009
C        6.95558688       0.42688178       6.13724567
C        8.24580845       0.42855076       5.61630849
C        8.62297956      -0.51719136       4.67141265
C        7.69202219      -1.46776246       4.24167032
H        2.67920359       0.26914505       0.52290781
H        4.09351547      -1.15896110       1.95958428
H        0.70114115      -3.65130127       2.84317061
H       -0.72034164      -2.23484368       1.40769941
H        3.83600743      -3.03708990       5.56111216
H        3.49180299      -1.51969193       4.71013319
H        5.00117506      -7.62126798       1.54838613
H        7.04509927      -8.60028058       0.54030762
H        8.66243868      -4.63875023       0.00802541
H        6.60546277      -3.67361934       0.97696243
H        5.02684102      -0.51443536       6.11714126
H        6.65066840       1.16059279       6.87591247
H        9.62402724      -0.53270642       4.25352863
H        7.99194965      -2.20257426       3.49400158
C        9.19497302       1.41867878       6.05486652
C        9.98989834       2.24791099       6.42215886
Br      11.27522535       3.58870935       7.01603952
