189
Properties=species:S:1:pos:R:3 pbc="F F F"
C        0.00000000       0.00000000       0.00000000
C        2.43833820       9.74072783      -7.57043841
O        3.11092341       9.32464371      -6.38978884
C        2.94749444       8.01555619      -6.00499569
C        2.48450284       7.02112699      -6.87504197
C        2.31707594       5.71309843      -6.42914932
C        2.62471603       5.38226439      -5.11396684
C        3.10959801       6.34600026      -4.21109014
C        3.51122664       5.95035146      -2.77984675
H        2.98465136       6.60919906      -2.07885492
C        5.02540131       6.01436526      -2.58754104
C        5.42032136       4.58745384      -2.81215396
N        4.40934900       3.73437970      -2.57010428
N        3.20797995       4.55236008      -2.43661958
C        1.99793983       4.10021896      -1.91257488
O        1.10381961       4.90020901      -1.62113252
C        1.80875711       2.65984111      -1.74757490
C        2.36300092       1.54906375      -2.36817437
C        1.76709360       0.40137578      -1.79664593
C        0.86871235       0.86871235      -0.86871235
O        0.86447482       2.22551002      -0.84416231
C        6.71120658       4.14837064      -3.35435995
C        7.77584398       5.04859813      -3.50434378
C        8.98713423       4.64822494      -4.08006963
C        9.14639780       3.33320870      -4.50555590
Br      10.77337105       2.79503187      -5.30383390
C        8.11364344       2.41419686      -4.35189672
C        6.90633252       2.82472066      -3.77668570
C        3.27720941       7.67348817      -4.67258183
O        3.69974715       8.58775190      -3.73229148
C        4.69250663       9.50600001      -4.17538760
H        2.55450855      10.82650179      -7.65095281
H        1.36813684       9.52281410      -7.51519938
H        2.89107899       9.29716138      -8.46189299
H        2.25115358       7.22804985      -7.91136287
H        1.95796226       4.94126873      -7.10257746
H        2.51296798       4.34978367      -4.79094476
H        5.26657899       6.28857087      -1.55339843
H        5.52194764       6.71979130      -3.25544858
H        3.11596510       1.58681924      -3.14263589
H        1.97526873      -0.63002460      -2.03643690
H        7.67005927       6.07858113      -3.17726589
H        9.78495111       5.37361609      -4.19265674
H        8.22130608       1.38579662      -4.67807942
H        6.09714922       2.10683965      -3.67203207
H        5.30479889       9.77886209      -3.30795524
H        4.22307004      10.42648053      -4.53545082
H        5.36238892       9.08148832      -4.93004533
C       -3.72334276     -10.82880447      -5.19735721
O       -4.48122601      -9.86444381      -4.47968614
C       -3.96764707      -8.59178086      -4.40861838
C       -2.97691253      -8.12363755      -5.28012172
C       -2.47565929      -6.83126666      -5.15239774
C       -2.96969698      -5.98872967      -4.16252061
C       -3.97758905      -6.41204153      -3.27705783
C       -4.56271934      -5.44610041      -2.23260510
H       -4.50110841      -5.92411148      -1.24748544
C       -5.99659446      -5.05018040      -2.58053275
C       -5.78846916      -3.74566061      -3.28579938
N       -4.63786670      -3.14955307      -2.92641321
N       -3.88123379      -4.14377888      -2.17194694
C       -2.76554268      -3.85897350      -1.38621748
O       -2.31913629      -4.70279213      -0.60323271
C       -2.12628672      -2.55272980      -1.53715661
C       -2.07290228      -1.63257576      -2.57476100
C       -1.27502179      -0.54890709      -2.14118644
C       -0.86871235      -0.86871235      -0.86871235
O       -1.35253419      -2.08172686      -0.49988610
C       -6.65606816      -3.21454629      -4.34332272
C       -7.89510646      -3.80675578      -4.62692365
C       -8.69630270      -3.34261265      -5.67651345
C       -8.26475640      -2.26999150      -6.45041450
Br      -9.33440240      -1.65506348      -7.88277093
C       -7.04867232      -1.65146601      -6.17959869
C       -6.25452649      -2.12391129      -5.12930110
C       -4.48194322      -7.72740662      -3.41392957
O       -5.42571446      -8.10879994      -2.48527612
C       -6.53189903      -8.83950630      -3.00248890
H       -4.19259795     -11.80463061      -5.03473460
H       -2.69727377     -10.88547122      -4.82340532
H       -3.74644621     -10.63083435      -6.27285280
H       -2.57670364      -8.73685509      -6.07700756
H       -1.70738572      -6.46719443      -5.82722830
H       -2.58503452      -4.97368274      -4.09497915
H       -6.57399475      -4.86859225      -1.66596129
H       -6.52364788      -5.79544430      -3.17809534
H       -2.56664276      -1.74972776      -3.52904971
H       -1.03535492       0.34688791      -2.69321402
H       -8.24859634      -4.64425335      -4.03305660
H       -9.64277943      -3.83215423      -5.87629027
H       -6.69766125      -0.81459693      -6.77292392
H       -5.29846983      -1.64683317      -4.93071794
H       -7.40027753      -8.62142784      -2.36991085
H       -6.34453483      -9.91481609      -2.92565047
H       -6.79192285      -8.55489226      -4.02710747
C      -10.75984281       3.50549161       5.48417002
O       -9.48323969       3.27699520       6.06512107
C       -8.39443724       3.34423496       5.22937412
C       -8.43713550       3.96725832       3.97627798
C       -7.31059881       3.98987833       3.15884655
C       -6.12608188       3.40359515       3.59127022
C       -6.03378310       2.78266375       4.85024156
C       -4.69818286       2.20003407       5.34320792
H       -4.86636346       1.15966303       5.64667885
C       -4.11223586       3.03361048       6.48146126
C       -3.15395066       3.91924657       5.74673192
N       -2.75137175       3.38000461       4.58245662
N       -3.62239792       2.23418179       4.34037990
C       -3.37588756       1.23946533       3.39538077
O       -4.02944012       0.19200494       3.40371608
C       -2.34926668       1.48354301       2.38336344
C       -1.81134870       2.63764930       1.83124103
C       -0.85505946       2.24216275       0.86789311
C       -0.86871235       0.86871235       0.86871235
O       -1.77933287       0.39726604       1.75754823
C       -2.77763531       5.27585837       6.16044349
C       -3.13453889       5.77156096       7.42268604
C       -2.83296084       7.08630330       7.79616465
C       -2.16028215       7.91818255       6.90669769
Br      -1.77119934       9.70127772       7.39975975
C       -1.77755603       7.44699302       5.65518795
C       -2.08506551       6.13181194       5.29086143
C       -7.18368573       2.76431895       5.67527474
O       -7.05405496       2.09375573       6.87197984
C       -7.63806409       2.73652108       7.99930907
H      -11.51396360       3.27437553       6.24362403
H      -10.93175807       2.84349477       4.63089748
H      -10.88708536       4.55594785       5.20710015
H       -9.33081676       4.45303946       3.60671007
H       -7.34244756       4.47232640       2.18703448
H       -5.24890731       3.45447397       2.95031513
H       -3.54544546       2.39414978       7.16895305
H       -4.86280718       3.57743013       7.05695021
H       -2.09061343       3.64350685       2.11129995
H       -0.23856025       2.88479641       0.25832437
H       -3.65912426       5.13655549       8.13022655
H       -3.13516860       7.44098903       8.77506631
H       -1.25284147       8.08208377       4.95025688
H       -1.79693131       5.77263260       4.30645703
H       -7.05530198       2.45285724       8.88345699
H       -8.65657860       2.36973953       8.15868325
H       -7.61688845       3.82875162       7.92828250
C       10.31123473      -2.81167839       6.62659132
O        8.94571978      -2.86295528       7.01668090
C        8.01088465      -2.94443738       6.01272428
C        8.33056393      -3.34139947       4.70870840
C        7.34899952      -3.38761097       3.72271320
C        6.03560314      -3.05226146       4.03308267
C        5.66701019      -2.66526634       5.33441188
C        4.19819166      -2.36461181       5.67862138
H        4.14929483      -1.37488799       6.14852252
C        3.60292645      -3.44735375       6.57702741
C        2.91549678      -4.32619127       5.57824111
N        2.59742024      -3.66532179       4.45109094
N        3.29409281      -2.38456880       4.51829801
C        3.02297777      -1.29299230       3.69476360
O        3.48827767      -0.17985057       3.95703290
C        2.20258335      -1.50952725       2.50406253
C        1.94399308      -2.62144300       1.71480296
C        1.08061384      -2.21158755       0.67291393
C        0.86871235      -0.86871235       0.86871235
O        1.55586026      -0.42625546       1.95203143
C        2.71234133      -5.77146781       5.73012803
C        2.96493270      -6.41229159       6.95156160
C        2.83353774      -7.79960142       7.08228963
C        2.43789196      -8.56050178       5.98676866
Br       2.28103666     -10.43701215       6.15418799
C        2.16259792      -7.94899689       4.76814220
C        2.29842818      -6.56192628       4.64738442
C        6.67102391      -2.62119596       6.33105955
O        6.26658241      -2.18077191       7.57243620
C        6.78396833      -2.91120684       8.67871907
H       10.90312007      -2.60464762       7.52419547
H       10.49034900      -2.00129248       5.91450884
H       10.64654255      -3.77411515       6.22947566
H        9.33468181      -3.62973529       4.42614920
H        7.59556606      -3.69493664       2.71130574
H        5.27738988      -3.11999426       3.25631227
H        2.84818920      -3.01519036       7.24516872
H        4.34418220      -3.96734707       7.18565826
H        2.34223980      -3.61031294       1.89286749
H        0.66952230      -2.82569330      -0.11353456
H        3.27377599      -5.83459245       7.81753785
H        3.04937452      -8.26396549       8.03788392
H        1.85327622      -8.52722512       3.90468077
H        2.09636917      -6.09029732       3.68935444
H        6.04435290      -2.86093297       9.48633034
H        7.69600192      -2.43624256       9.05275690
H        6.95228391      -3.96903579       8.45260288
