185
Properties=species:S:1:pos:R:3 pbc="F F F"
C        0.00000000       0.00000000       0.00000000
C       11.81232941       1.56930757      -1.89135588
O       11.00394455       1.24634438      -3.01661178
C        9.75985037       1.81854299      -3.03231455
C        8.83080242       1.21118110      -3.87789396
C        7.51758771       1.69408956      -3.96292290
C        7.11105210       2.80402663      -3.21528694
C        8.06743123       3.42108824      -2.39438195
C        9.37772511       2.93906922      -2.30069145
C        5.73136550       3.30297874      -3.26297668
N        5.37296278       4.44361493      -2.65092365
N        3.92838991       4.51449375      -2.67825847
C        3.37495391       3.37280255      -3.39958879
H        2.76681008       3.75970486      -4.22781251
C        4.59112120       2.63035136      -3.95587584
C        2.49975716       2.49882847      -2.50555661
C        1.15419727       2.27475763      -2.83541300
C        0.34759721       1.46773421      -2.02862072
C        0.88273115       0.88273115      -0.88273115
C        2.21231597       1.10107549      -0.53101440
C        3.01427509       1.90857964      -1.33944457
C        3.20627122       5.64728272      -2.33883484
O        2.01429231       5.79228454      -2.62698097
C        3.87756972       6.76443915      -1.60484769
C        4.86154263       6.54819643      -0.63163569
C        5.46478251       7.62581731       0.02314915
C        5.05656040       8.92517235      -0.27006772
Br       5.87430673      10.38686040       0.60863054
C        4.04857171       9.15724125      -1.20505636
C        3.45818451       8.07696519      -1.86767395
H       11.29398153       1.34723566      -0.95166601
H       12.13953086       2.61371269      -1.92454199
H       12.70800787       0.94196958      -1.93264152
H        9.12025470       0.34640020      -4.46701346
H        6.81546379       1.19185686      -4.62089801
H        7.78380153       4.29412098      -1.80986310
H       10.06254019       3.47102260      -1.65201382
H        4.55646336       1.55060492      -3.77760428
H        4.67261364       2.79473128      -5.03730393
H        0.72884691       2.74998215      -3.71589148
H       -0.69238237       1.31515481      -2.29923393
H        2.63677461       0.66163756       0.36560833
H        4.05042593       2.10232532      -1.06299953
H        5.17110987       5.53266761      -0.39598764
H        6.24970930       7.43233812       0.74751186
H        3.71761267      10.16602687      -1.43174940
H        2.67424387       8.24921401      -2.60156793
C        1.15309119      -6.05279419     -10.37328987
O        0.74640813      -6.78805655      -9.22525229
C       -0.10357044      -6.13163654      -8.37550093
C       -0.18216228      -6.65379946      -7.08391574
C       -1.00232780      -6.05408932      -6.11818305
C       -1.77251168      -4.92876831      -6.42908569
C       -1.70485174      -4.43654339      -7.74150629
C       -0.88271767      -5.02728632      -8.70748178
C       -2.60980768      -4.26488558      -5.42262766
N       -3.44887775      -3.26848643      -5.75013718
N       -3.92421846      -2.67959736      -4.51732630
C       -3.38319640      -3.39694325      -3.36720561
H       -4.22852632      -3.75865365      -2.76714748
C       -2.62792662      -4.58599139      -3.96343039
C       -2.50133097      -2.50505147      -2.49775980
C       -2.81714022      -2.30166754      -1.14556015
C       -2.01009368      -1.49501856      -0.33883990
C       -0.88273115      -0.88273115      -0.88273115
C       -0.55742998      -1.06217386      -2.22480200
C       -1.36685950      -1.86820630      -3.02723349
C       -4.96972744      -1.77282820      -4.44983315
O       -5.54607322      -1.49340507      -3.39407953
C       -5.45140567      -1.09970240      -5.69574849
C       -4.59001206      -0.71878733      -6.73257536
C       -5.08883515      -0.09751657      -7.88109896
C       -6.45113408       0.17754077      -7.97820715
Br      -7.13175564       1.01222686      -9.53300781
C       -7.31727463      -0.15591913      -6.93767557
C       -6.81577893      -0.79000570      -5.79703901
H        1.58711474      -5.08603921     -10.09395873
H        0.32382914      -5.92483672     -11.07677796
H        1.93045896      -6.63106808     -10.88200985
H        0.40758706      -7.52511137      -6.81614405
H       -1.03196511      -6.47719513      -5.11905842
H       -2.30203143      -3.56931609      -8.01643809
H       -0.88752551      -4.59686680      -9.70118429
H       -1.62690647      -4.71788772      -3.53987837
H       -3.19177373      -5.51260081      -3.80027431
H       -3.70966215      -2.75915594      -0.72590245
H       -2.27850234      -1.34568573       0.70218171
H        0.31039674      -0.58032872      -2.66287185
H       -1.13286792      -1.99943175      -4.08345110
H       -3.52527209      -0.92424296      -6.65025007
H       -4.40480832       0.15536435      -8.68509159
H       -8.37844598       0.06421212      -7.00115508
H       -7.48500895      -1.05748366      -4.98253321
C        1.31642103       6.52923413      10.06017976
O        0.83254459       7.19798424       8.90146106
C       -0.02269583       6.47207353       8.11593854
C       -0.17585000       6.93535291       6.80867457
C       -1.00845320       6.26234763       5.90379934
C       -1.71692498       5.12082281       6.29261788
C       -1.57510593       4.68786863       7.61992686
C       -0.74014736       5.35201260       8.52532581
C       -2.56556411       4.38133151       5.35042530
N       -3.34759561       3.36640731       5.75349844
N       -3.84729563       2.70690594       4.56694056
C       -3.38443009       3.39624122       3.36667394
H       -4.26805520       3.69748085       2.78879141
C       -2.65664158       4.63925245       3.88145437
C       -2.50163408       2.50489357       2.49761460
C       -2.86328735       2.23165778       1.16942278
C       -2.05624440       1.42502195       0.36268579
C       -0.88273115       0.88273115       0.88273115
C       -0.51099900       1.13202369       2.20138317
C       -1.32056915       1.93776517       3.00396497
C       -4.85528222       1.75630323       4.58080334
O       -5.46173497       1.40913321       3.56268965
C       -5.25688456       1.11758926       5.87238273
C       -4.33863826       0.81635752       6.88637897
C       -4.76351783       0.22458046       8.07935238
C       -6.10784400      -0.10131000       8.24526646
Br      -6.68862555      -0.89629779       9.86020883
C       -7.02896693       0.15219835       7.22970405
C       -6.60164206       0.75721233       6.04396925
H        1.77933457       5.56996146       9.80225631
H        0.52264257       6.39759669      10.80283143
H        2.08861532       7.15971451      10.51151978
H        0.36502794       7.81779587       6.48090043
H       -1.09663664       6.64113780       4.89044421
H       -2.12328330       3.80950461       7.95499770
H       -0.68625991       4.96428992       9.53502677
H       -1.68017933       4.79368385       3.41080937
H       -3.26545483       5.53439856       3.70479547
H       -3.79074544       2.63424151       0.76973359
H       -2.36021081       1.22087117      -0.65907562
H        0.39358881       0.70490152       2.62149114
H       -1.04957401       2.12308410       4.04309266
H       -3.28780299       1.06128690       6.75067522
H       -4.03723559       0.03406927       8.86323069
H       -8.07638404      -0.10803545       7.34704034
H       -7.31419995       0.96245144       5.24837443
C       11.64720514      -3.10527997       0.52050776
O       11.07222674      -2.51462989       1.68004408
C        9.78043633      -2.88097523       1.94929634
C        9.08208970      -2.03053581       2.80725197
C        7.74520501      -2.28957651       3.13981866
C        7.08413866      -3.41314320       2.63308381
C        7.81175500      -4.27400584       1.79714058
C        9.14432656      -4.01653920       1.45662002
C        5.67428374      -3.68261776       2.94041943
N        5.07715155      -4.82560311       2.56474670
N        3.65764119      -4.66868891       2.79481202
C        3.37903764      -3.36956695       3.39874066
H        2.85978222      -3.54432056       4.35022468
C        4.75432635      -2.75606035       3.66696170
C        2.50077477      -2.49807561       2.50529187
C        1.26411148      -2.02737007       2.97288636
C        0.45753817      -1.22038112       2.16603285
C        0.88273115      -0.88273115       0.88273115
C        2.10114737      -1.34827907       0.39497941
C        2.90336549      -2.15480519       1.20412861
C        2.74748722      -5.71162143       2.73328013
O        1.60560499      -5.63147791       3.19647493
C        3.14279850      -7.00657594       2.09748212
C        3.98492723      -7.07614260       0.98030492
C        4.33108020      -8.31135231       0.42501816
C        3.80357451      -9.48149182       0.96673414
Br       4.27407491     -11.15559930       0.22286238
C        2.92993417      -9.42880805       2.05212711
C        2.59792533      -8.19193683       2.61296149
H       11.02445554      -2.93310751      -0.36467985
H       11.83357473      -4.17380247       0.67040833
H       12.61401232      -2.62365719       0.34494946
H        9.57144562      -1.15004801       3.21217473
H        7.22610675      -1.60202400       3.80008791
H        7.32770980      -5.16285726       1.39721854
H        9.64395400      -4.72928307       0.81233953
H        4.83670964      -1.71735171       3.33061120
H        4.97891061      -2.78553776       4.74020048
H        0.92010932      -2.30981091       3.96480032
H       -0.49860438      -0.87465985       2.54595090
H        2.43702223      -1.10288701      -0.60710540
H        3.84937842      -2.54101609       0.82535626
H        4.38692217      -6.16100504       0.55183790
H        5.01366236      -8.33938418      -0.41851099
H        2.50651363     -10.33523902       2.47363629
H        1.92060511      -8.14200242       3.46241828
