85
Properties=species:S:1:pos:R:3 pbc="F F F"
C        0.00000000       0.00000000       0.00000000
C        0.88189755       0.88189755      -0.88189755
C        2.02525948       0.34614980      -1.46811263
C        2.83301874       1.15637155      -2.27158822
C        2.50357648       2.50290515      -2.52223226
N        3.36326928       3.33717663      -3.26818635
C        2.71534654       4.49896045      -3.86002511
C        2.02246052       5.31630351      -2.78959709
C        1.03091250       4.45494280      -2.05230558
O        0.01045416       4.92194510      -1.55384409
C        1.36326251       3.02017783      -1.88324521
C        0.54375537       2.21604600      -1.08093603
H        2.29064480      -0.69351908      -1.29653118
H        3.93491109       2.80020682      -3.92182565
H        3.47470429       5.11251910      -4.35564804
H        2.00412757       4.17690701      -4.63062619
H        1.49029308       6.15437243      -3.25325876
H        2.73854924       5.71437956      -2.06092109
H       -0.33890272       2.64061077      -0.60640605
C        4.00708468       0.56285553      -2.85717161
C        4.99036490       0.06578587      -3.34759770
Br       6.58024586      -0.73793374      -4.14057521
C       -0.88189755      -0.88189755      -0.88189755
C       -1.74336388      -0.29289908      -1.80325895
C       -2.55247959      -1.10202968      -2.60646925
C       -2.49997346      -2.50721138      -2.52152904
N       -3.37486725      -3.31653790      -3.27722711
C       -2.91257320      -4.68225662      -3.47950228
C       -2.63567807      -5.34608103      -2.14660202
C       -1.62696526      -4.53723009      -1.37396553
O       -0.85096943      -5.05792480      -0.57734911
C       -1.64694151      -3.06589368      -1.55385037
C       -0.82777924      -2.26502228      -0.74793588
H       -1.79037913       0.78906001      -1.89233778
H       -3.67722204      -2.84752839      -4.13219315
H       -3.68726942      -5.24182512      -4.01377688
H       -2.01659978      -4.68262242      -4.11243857
H       -2.23349842      -6.35165755      -2.31276829
H       -3.54598073      -5.42707660      -1.54079257
H       -0.16932010      -2.72517039      -0.01362360
C       -3.43016285      -0.45200336      -3.54494561
C       -4.16522258       0.09239368      -4.33091956
Br      -5.35375200       0.97263764      -5.60177297
C       -0.88189755       0.88189755       0.88189755
C       -0.32837415       1.98463878       1.52650897
C       -1.13665225       2.78795645       2.33636981
C       -2.51018822       2.52021967       2.49830600
N       -3.30352628       3.28637192       3.37873406
C       -4.73133463       3.24636515       3.09663231
C       -5.22536300       1.81464440       3.08835372
C       -4.44688352       1.01249555       2.07878180
O       -4.94061554       0.05311963       1.49250817
C       -3.02621095       1.37704933       1.86342527
C       -2.22691301       0.56858853       1.04523585
H        0.72663027       2.21497952       1.40530765
H       -2.92853426       4.22816336       3.50024595
H       -5.26018700       3.81215314       3.87053130
H       -4.93575930       3.73824740       2.13765408
H       -6.28691714       1.79318261       2.81782452
H       -5.10290656       1.34121872       4.06972462
H       -2.65542200      -0.30505627       0.55774837
C       -0.52365953       3.91751445       2.98593784
C       -0.01027812       4.86351929       3.52995107
Br       0.81981620       6.39312909       4.40957444
C        0.88189755      -0.88189755       0.88189755
C        0.31787915      -1.95423716       1.56740560
C        1.12631868      -2.75751907       2.37714076
C        2.50964354      -2.52050485       2.49856550
N        3.30583752      -3.28453829       3.37825644
C        4.72665467      -3.28736639       3.06031103
C        5.25527811      -1.86915077       3.00393224
C        4.47156977      -1.07268324       1.99390787
O        4.97378465      -0.14068694       1.37177176
C        3.03742039      -1.40657976       1.82268540
C        2.23787224      -0.59858786       1.00427730
H       -0.74516962      -2.16088685       1.47793966
H        2.91103729      -4.21334253       3.53256375
H        5.26076136      -3.84712270       3.83498737
H        4.89478450      -3.80759969       2.10927658
H        6.30990311      -1.88102163       2.70699953
H        5.16917626      -1.36887410       3.97579953
H        2.67528538       0.25179218       0.48462091
C        0.50233465      -3.85504241       3.06973476
C       -0.02025198      -4.77421821       3.64978224
Br      -0.86523035      -6.26044773       4.58766994
