193
Properties=species:S:1:pos:R:3 pbc="F F F"
C        0.00000000       0.00000000       0.00000000
C        0.88361332       0.88361332      -0.88361332
C        2.04671885       1.44124778      -0.36125560
C        2.84905598       2.25427808      -1.16761987
C        2.50068004       2.51182304      -2.50407889
C        1.32402839       1.92985054      -3.00519696
C        0.51465470       1.12298958      -2.20345668
C        3.38318885       3.41517906      -3.36130572
H        3.45604885       4.38174383      -2.84264428
N        2.83138047       3.65372128      -4.70483336
N        3.80925927       3.29417187      -5.72284438
C        4.88122118       2.82242138      -5.07774644
C        4.78630330       2.85648495      -3.59780370
C        5.97218750       2.16953460      -5.80873998
C        5.89732756       0.78942121      -6.06314819
C        4.72578028      -0.03532325      -5.60760773
N        6.86446272       0.09540606      -6.72288196
C        7.89989209       0.76860089      -7.22293490
C        8.84155818       0.03344516      -7.93026609
C        9.94979288       0.62834993      -8.53173642
C       10.11110771       1.99927259      -8.43319289
Br      11.58430272       2.83799554      -9.26941067
C        9.18778049       2.76005984      -7.71822431
C        8.07324991       2.16307627      -7.06959693
C        7.10871629       2.87701652      -6.28374040
C        7.33541566       4.31358547      -5.94357121
C        8.49742505       4.71310756      -5.25345313
C        8.74439696       6.05640684      -4.95170266
C        7.81251470       7.02913843      -5.30146748
C        6.64460543       6.65813839      -5.96205748
C        6.42115998       5.31713591      -6.29414168
H        2.34092902       1.25156847       0.66579511
H        3.75747113       2.68824957      -0.75586138
H        1.04355407       2.10769210      -4.04395406
H       -0.38759316       0.69309930      -2.62728223
H        2.59481018       4.63347044      -4.83695655
H        4.93970164       1.86511312      -3.16180517
H        5.54396451       3.53604494      -3.19195096
H        4.66510778      -0.05505804      -4.51536706
H        4.83295702      -1.07229490      -5.94620286
H        3.78898254       0.34597640      -6.02503692
H        8.69637487      -1.03985575      -8.02096816
H       10.65796042       0.01547217      -9.07864690
H        9.32143343       3.83891784      -7.67786713
H        9.22656772       3.96431753      -4.94804067
H        9.65582311       6.33578243      -4.43360395
H        7.98515146       8.07087579      -5.04771845
H        5.89185564       7.39827780      -6.21154213
H        5.49533832       5.04981514      -6.80272175
C       -0.88361332      -0.88361332      -0.88361332
C       -0.79385312      -2.26893885      -0.78643027
C       -1.59649268      -3.07484263      -1.59961863
C       -2.50031883      -2.50462889      -2.51163425
C       -2.57315054      -1.10321389      -2.58271145
C       -1.76951781      -0.29273211      -1.77885103
C       -3.35532403      -3.40373426      -3.40061535
H       -2.66653764      -4.04479809      -3.96910123
N       -4.18052246      -2.65055452      -4.35885814
N       -5.58167313      -3.02406818      -4.22053421
C       -5.64704416      -3.91166166      -3.22268318
C       -4.34024360      -4.27699906      -2.62334927
C       -6.94032435      -4.33460081      -2.67553692
C       -7.52452663      -3.58548413      -1.63988620
C       -6.85913863      -2.35923731      -1.07968882
N       -8.71448046      -3.90594177      -1.06232852
C       -9.40139587      -4.93666151      -1.55337051
C      -10.63239375      -5.20343997      -0.96943572
C      -11.46034897      -6.23167946      -1.41785080
C      -11.04928985      -7.00466443      -2.48961891
Br     -12.16705679      -8.38207682      -3.14257532
C       -9.81248347      -6.76701670      -3.08656446
C       -8.94235938      -5.74624236      -2.61732136
C       -7.64082166      -5.47352709      -3.15512446
C       -7.03476107      -6.40136466      -4.15644661
C       -6.84829028      -7.76451772      -3.85117775
C       -6.31093339      -8.65703002      -4.78454305
C       -5.91142482      -8.19617297      -6.03552283
C       -6.06194356      -6.84925094      -6.35360679
C       -6.63477737      -5.96887593      -5.42878427
H       -0.10861482      -2.73325100      -0.08483656
H       -1.52363211      -4.15722927      -1.52072070
H       -3.27784686      -0.64189524      -3.27545814
H       -1.85415514       0.78612876      -1.86476199
H       -3.90256554      -2.84569529      -5.31697634
H       -4.32707348      -4.09462698      -1.54491947
H       -4.13410749      -5.33867790      -2.79917502
H       -5.91189884      -2.61693345      -0.59658451
H       -7.49552418      -1.89202959      -0.31931121
H       -6.68695347      -1.61242475      -1.86061765
H      -10.95733327      -4.57830679      -0.14184723
H      -12.41626504      -6.40135421      -0.93446024
H       -9.52350366      -7.37018374      -3.94453101
H       -7.13038418      -8.13980665      -2.86873509
H       -6.19423621      -9.70440924      -4.52656404
H       -5.46959228      -8.87804917      -6.75610425
H       -5.72448533      -6.46638950      -7.31080074
H       -6.73351598      -4.91740339      -5.69695585
C       -0.88361332       0.88361332       0.88361332
C       -0.32257968       1.57084098       1.95580158
C       -1.13252667       2.37186648       2.76656078
C       -2.50790219       2.49901213       2.50966765
C       -3.04448922       1.79819216       1.41639451
C       -2.24283749       0.99103447       0.60722900
C       -3.37584642       3.36645687       3.41737035
H       -3.26117267       2.97936142       4.43990287
N       -4.80419428       3.32078805       3.06495278
N       -5.31283951       4.66799411       2.84544189
C       -4.27846316       5.50061676       3.00230908
C       -3.00323591       4.84873069       3.38862534
C       -4.39174933       6.91751062       2.64120213
C       -4.11636463       7.31259879       1.32093355
C       -3.71107243       6.31948517       0.26750717
N       -4.18368683       8.60360445       0.89545947
C       -4.60731774       9.53287012       1.75124004
C       -4.70809055      10.83013756       1.26704133
C       -5.17288097      11.88302203       2.05397624
C       -5.56020730      11.62591809       3.35744780
Br      -6.22868610      13.02669178       4.43633105
C       -5.45747621      10.33525289       3.87333553
C       -4.95172375       9.25953173       3.09466762
C       -4.77931927       7.91794987       3.57220407
C       -4.95970461       7.61027271       5.02259502
C       -4.19041639       8.27507388       5.99849548
C       -4.36431695       8.02458726       7.36360225
C       -5.28864210       7.07211305       7.78236547
C       -6.04405744       6.38337733       6.83736652
C       -5.89171009       6.66558202       5.47514546
H        0.73828181       1.49445300       2.17053119
H       -0.69040048       2.90759244       3.60358916
H       -4.10763234       1.89432233       1.19324556
H       -2.69557867       0.46425524      -0.22704555
H       -5.35391205       2.90128377       3.81004135
H       -2.20151389       5.08280546       2.68230057
H       -2.69897623       5.18787813       4.38510606
H       -2.75049476       5.85858108       0.51634097
H       -3.59171082       6.81701032      -0.70185616
H       -4.47349067       5.54481408       0.14169112
H       -4.42187872      11.01977946       0.23582911
H       -5.23929704      12.88015902       1.63262342
H       -5.79351252      10.15291184       4.89179404
H       -3.44366891       9.00508545       5.69017156
H       -3.76867681       8.56378449       8.09274818
H       -5.41099015       6.85364451       8.83911103
H       -6.74416384       5.61359762       7.14391410
H       -6.48726651       6.10682559       4.75378312
C        0.88361332      -0.88361332       0.88361332
C        2.26837149      -0.81962371       0.76122704
C        3.07404153      -1.63288029       1.56403212
C        2.50437777      -2.51172562       2.50047859
C        1.10373166      -2.54963281       2.60571143
C        0.29325827      -1.74561840       1.80222428
C        3.40271365      -3.40168215       3.35527783
H        4.01545261      -3.99946716       2.66551718
N        2.64738816      -4.32434517       4.21820179
N        3.05528679      -4.16366177       5.60732695
C        3.96586903      -3.18483762       5.63068235
C        4.31481042      -2.62277674       4.30300478
C        4.42973766      -2.61902016       6.90170426
C        3.71692610      -1.55417187       7.47879899
C        2.48864240      -0.98130293       6.82811943
N        4.07670830      -0.95792588       8.64811656
C        5.11156791      -1.45680058       9.32305940
C        5.41876136      -0.85206967      10.53443841
C        6.45525336      -1.30517921      11.34944667
C        7.19502239      -2.40285404      10.94569676
Br       8.58253426      -3.06188278      12.04729189
C        6.91652826      -3.02137252       9.72816386
C        5.88700720      -2.54854118       8.87037473
C        5.57330785      -3.10858188       7.58758348
C        6.46501535      -4.14362085       6.98393615
C        7.83001492      -3.87327772       6.76069311
C        8.68945588      -4.83808686       6.22496372
C        8.19231043      -6.08686870       5.86394148
C        6.84244293      -6.37117691       6.05118145
C        5.99574351      -5.41439874       6.62229532
H        2.73247410      -0.14390324       0.05032504
H        4.15598876      -1.57997867       1.46561465
H        0.64325355      -3.21614981       3.33579687
H       -0.78505427      -1.80534975       1.91249289
H        2.81509490      -5.29249587       3.95764639
H        4.15596305      -1.54106754       4.26958934
H        5.36745621      -2.82693940       4.07756480
H        2.73552842      -0.52508004       5.86480834
H        2.05271695      -0.19678612       7.45736192
H        1.72114134      -1.74883038       6.69002415
H        4.81946003      -0.00367524      10.85435201
H        6.65698933      -0.80481101      12.29027914
H        7.49401495      -3.89884442       9.44535903
H        8.23308364      -2.89355837       7.01228391
H        9.73936734      -4.60636982       6.07947232
H        8.84805123      -6.83215801       5.42353645
H        6.43111533      -7.32670796       5.74385228
H        4.94111238      -5.65660638       6.75015646
