181
Properties=species:S:1:pos:R:3 pbc="F F F"
C        0.00000000       0.00000000       0.00000000
C        0.88142804       0.88142804      -0.88142804
C        1.47373546       2.02242233      -0.34683460
C        2.29127267       2.82047560      -1.14998986
C        2.52930133       2.47771191      -2.48893131
C        1.90778218       1.33738695      -3.01693892
C        1.08989672       0.53813640      -2.21494533
C        3.45133561       3.31559890      -3.35121099
C        4.95865181       2.94759600      -3.26819947
C        5.74208828       3.85517648      -4.23810237
C        5.47313259       3.25900136      -1.88267863
O        5.19856797       4.30664736      -1.30094965
O        6.27625468       2.35564416      -1.28949632
C        6.94645972       1.35998199      -2.08015118
H        7.60657244       1.90723068      -2.76818236
C        7.84094690       0.57088670      -1.13396998
C        7.43959489       0.27350603       0.18064913
C        8.26965174      -0.45239064       1.03874651
C        9.51209689      -0.88885924       0.58979540
Br      10.63720710      -1.87005006       1.74842068
C        9.93214625      -0.60395468      -0.70705981
C        9.10202200       0.12503695      -1.56339889
C        5.92639990       0.52506041      -2.86901999
C        4.91648538      -0.22077752      -1.98736457
C        6.63252091      -0.49094080      -3.78863089
C        5.15918950       1.51597966      -3.74478450
O        4.70285353       1.16295581      -4.83880324
H        1.30700301       2.30117682       0.69024076
H        2.73899406       3.71427999      -0.71678056
H        2.06499576       1.05402272      -4.05689301
H        0.62585904      -0.34878096      -2.63937956
H        3.30177216       4.37110788      -3.08366093
H        3.10499154       3.24216601      -4.39184125
H        6.81166940       3.61514767      -4.23509820
H        5.64463355       4.91276539      -3.96651233
H        5.38763979       3.74264767      -5.26940887
H        6.47463893       0.61332117       0.55493954
H        7.93775619      -0.66507039       2.05145911
H       10.90367926      -0.94186793      -1.05958849
H        9.45204284       0.33915625      -2.57092825
H        4.43130173       0.44273498      -1.26609763
H        5.39403719      -1.03096559      -1.42678607
H        4.12696007      -0.67649082      -2.59569554
H        7.34647463       0.00834661      -4.45444449
H        5.91552995      -1.02270494      -4.42480141
H        7.17235763      -1.25232258      -3.21643372
C       -0.88142804      -0.88142804      -0.88142804
C       -2.22375826      -0.55829843      -1.06093570
C       -3.02592758      -1.35712080      -1.87868975
C       -2.48908446      -2.47759244      -2.52926764
C       -1.14099320      -2.80074799      -2.32036685
C       -0.33736350      -2.00277371      -1.50284123
C       -3.34425942      -3.32102159      -3.45286450
C       -3.41509847      -2.83300512      -4.92634370
C       -4.27681456      -3.82497843      -5.73357414
C       -4.13183740      -1.50450959      -4.97846559
O       -5.16589317      -1.29173722      -4.34853460
O       -3.61728308      -0.53981739      -5.76429469
C       -2.69394388      -0.88118331      -6.81146570
H       -3.24200082      -1.53762112      -7.50236354
C       -2.38433907       0.40448343      -7.56594794
C       -2.27001857       1.63817595      -6.90060917
C       -1.98457577       2.81078086      -7.60471969
C       -1.81046295       2.76121862      -8.98419792
Br      -1.42520038       4.34568321      -9.93921919
C       -1.92167836       1.55143704      -9.66501005
C       -2.21038165       0.37965216      -8.95972835
C       -1.47359659      -1.61358243      -6.23330127
C       -0.68577815      -0.79454549      -5.20274878
C       -0.51393509      -2.06353730      -7.35273861
C       -2.02161355      -2.86016634      -5.53817378
O       -1.34149043      -3.89108982      -5.47203233
H       -2.65674311       0.30969073      -0.57088669
H       -4.07612016      -1.09377416      -2.00016029
H       -0.70054454      -3.67219528      -2.80317168
H        0.70885859      -2.26306502      -1.36225122
H       -4.35384035      -3.38028439      -3.02241623
H       -2.96765953      -4.35312142      -3.41821785
H       -4.33537623      -3.53692421      -6.78961482
H       -5.30302451      -3.87019799      -5.35068877
H       -3.86318081      -4.83959804      -5.69691747
H       -2.41132778       1.70056244      -5.82225522
H       -1.90592740       3.75209215      -7.06739144
H       -1.78841276       1.51039881     -10.74338586
H       -2.29627085      -0.55340709      -9.51244940
H       -1.33111129      -0.39202005      -4.41700301
H       -0.16576824       0.04728875      -5.67137817
H        0.07891162      -1.40987867      -4.71519773
H       -1.03572597      -2.67517190      -8.09836786
H        0.30887392      -2.66987315      -6.95662718
H       -0.05882334      -1.21082119      -7.86682423
C       -0.88142804       0.88142804       0.88142804
C       -1.83656458       1.70909519       0.29733262
C       -2.65205208       2.50455469       1.10513136
C       -2.52433012       2.47026666       2.50134777
C       -1.54301194       1.64739033       3.07170578
C       -0.72666134       0.85115941       2.26515770
C       -3.43704241       3.29754643       3.38355667
C       -4.78811748       2.62791957       3.75841023
C       -5.56572680       3.57594416       4.69369616
C       -5.62979859       2.47088916       2.51412483
O       -5.74989212       3.37092449       1.68534837
O       -6.28062025       1.30588710       2.33488781
C       -6.50667941       0.42897339       3.45094009
H       -7.13276571       0.98925063       4.15996914
C       -7.34314403      -0.73505650       2.93771604
C       -7.14990841      -1.26829190       1.65083528
C       -7.92375671      -2.33742720       1.19218508
C       -8.90079352      -2.88496531       2.01761403
Br      -9.94950999      -4.33041480       1.39964117
C       -9.11212599      -2.37174841       3.29487380
C       -8.33934466      -1.30011239       3.75122556
C       -5.17303404       0.04046915       4.10697711
C       -4.20417845      -0.68702842       3.16592240
C       -5.40229026      -0.83033335       5.35825411
C       -4.52202225       1.35250730       4.54542412
O       -3.78296255       1.38502527       5.53662475
H       -1.95553466       1.74470467      -0.78230027
H       -3.38773507       3.15251206       0.62980748
H       -1.41329195       1.61003754       4.15258200
H        0.02098770       0.21076021       2.72668513
H       -3.61491504       4.25937197       2.88225396
H       -2.88329008       3.55945171       4.29625701
H       -6.51862940       3.13486446       5.00842140
H       -5.79427317       4.52834198       4.20129611
H       -4.99629640       3.80008999       5.60330993
H       -6.39639340      -0.84871643       0.98534360
H       -7.75752589      -2.72814304       0.19184385
H       -9.87668309      -2.79632145       3.94103818
H       -8.52413469      -0.91295061       4.75094326
H       -4.05573300      -0.14399448       2.22839582
H       -4.56370536      -1.69073746       2.91688977
H       -3.22043763      -0.80788957       3.63361673
H       -6.07168993      -0.33180019       6.06937599
H       -4.46251017      -1.03063603       5.88575228
H       -5.83542177      -1.80316068       5.10420767
C        0.88142804      -0.88142804       0.88142804
C        2.20733817      -0.52426422       1.11139000
C        3.00894292      -1.32356603       1.92922918
C        2.48754130      -2.47883121       2.52957204
C        1.15674798      -2.83529332       2.27006675
C        0.35370332      -2.03688913       1.45238600
C        3.34032775      -3.32436256       3.45345520
C        3.35247992      -2.87972973       4.94223763
C        4.21979386      -3.86991929       5.74565398
C        4.02641244      -1.53277399       5.05562615
O        5.07171000      -1.27026770       4.46418728
O        3.45952759      -0.60824094       5.85362664
C        2.51640132      -1.00869447       6.86149710
H        3.06353449      -1.66940034       7.54905064
C        2.14539807       0.24355904       7.64396455
C        2.01320385       1.49307947       7.01232741
C        1.67129089       2.63463021       7.74185391
C        1.45793457       2.53778016       9.11328784
Br       0.99626029       4.08018613      10.10266220
C        1.58583664       1.31158387       9.76099860
C        1.93101680       0.17098493       9.03042596
C        1.33669865      -1.75895196       6.22482968
C        0.55512562      -0.93252336       5.19542345
C        0.35845894      -2.27118232       7.30056974
C        1.94294245      -2.96690097       5.51011024
O        1.29691205      -4.01504010       5.39266043
H        2.62793233       0.37075996       0.66076670
H        4.04652943      -1.03302189       2.09050329
H        0.72901735      -3.73377243       2.71312171
H       -0.67944260      -2.32367848       1.27222176
H        4.36357153      -3.34046839       3.05250105
H        2.99664692      -4.36563695       3.37671493
H        4.23817392      -3.61267097       6.81107038
H        5.25781152      -3.87295531       5.39314443
H        3.83863805      -4.89476633       5.66629193
H        2.18446272       1.59256425       5.94112210
H        1.57987715       3.58917973       7.23052927
H        1.42196087       1.23366588      10.83310483
H        2.02895599      -0.77557581       9.55759555
H        1.21087446      -0.48720307       4.44205681
H       -0.00404588      -0.12120231       5.67270124
H       -0.17559924      -1.55507584       4.66668818
H        0.87635695      -2.88957777       8.04333101
H       -0.43331963      -2.88926467       6.86168137
H       -0.13755420      -1.44845385       7.82556911
