194
Properties=species:S:1:pos:R:3 pbc="F F F"
C        1.79114519       1.79114519      -1.79114519
C        3.13707910       1.48087294      -1.95611175
C        3.94179508       2.27772301      -2.77757850
C        3.41425351       3.39250929      -3.44828317
C        2.05055536       3.68836882      -3.25460434
C        1.24369369       2.89472938      -2.43448001
C        4.21913025       4.27643353      -4.39357824
H        3.52054850       5.03004197      -4.78278352
N        4.81041497       3.64492071      -5.58370947
C        4.27006068       2.40972042      -6.13542233
C        5.50524703       1.57367449      -6.44628037
C        6.54112680       2.07940507      -5.45767352
N        6.22221313       3.49471557      -5.40395965
C        6.65119170       4.33515900      -4.29219094
H        7.41187943       5.04877423      -4.63188094
C        5.40912674       5.05141880      -3.82332551
H        5.41738667       6.07586406      -4.21821227
C        5.55312624       5.09203870      -2.33489560
O        4.84192014       5.82291337      -1.65782093
N        6.56838309       4.23386087      -1.94439991
C        6.95039858       3.98498706      -0.57939243
C        6.26671748       4.56978298       0.50240231
C        6.65564733       4.35404676       1.83394306
C        7.73971363       3.53639943       2.11629462
Br       8.27095127       3.24788562       3.90502508
C        8.43399865       2.93399961       1.07870030
C        8.04191240       3.15918901      -0.25021112
C        7.18405880       3.66460840      -3.05007360
O        8.05341023       2.80119172      -3.08420917
H        3.56960751       0.61549883      -1.45997805
H        4.97812836       1.98482234      -2.89806732
H        1.59499517       4.54334463      -3.75258481
H        0.19324431       3.14524073      -2.31190048
H        3.69348120       2.60792757      -7.04489911
H        3.62226837       1.85196075      -5.45512393
H        5.31639456       0.50168125      -6.33232101
H        5.83951548       1.75912602      -7.47472900
H        6.39641208       1.56138797      -4.50544262
H        7.56143106       1.89669093      -5.80729462
H        5.40633852       5.21666899       0.36248834
H        6.09964855       4.83567913       2.63460542
H        9.28641470       2.28970649       1.28011867
H        8.64373753       2.66202135      -1.00419860
C       -1.79114519      -1.79114519      -1.79114519
C       -1.42454458      -3.10979316      -2.03972605
C       -2.24043464      -3.92373228      -2.83292967
C       -3.43454280      -3.43461490      -3.38588826
C       -3.77532744      -2.09267886      -3.12552222
C       -2.96254415      -1.27654375      -2.33381518
C       -4.39373530      -4.27595223      -4.21945449
H       -5.24188968      -3.62316933      -4.46831497
N       -4.99064396      -5.46229479      -3.58610640
C       -5.10264481      -5.57453622      -2.13802240
C       -4.67330453      -7.00673425      -1.84516313
C       -3.73928559      -7.34518707      -2.99373273
N       -4.37477502      -6.64852143      -4.09759190
C       -3.64542854      -6.31708039      -5.31603271
H       -4.02289490      -6.91493474      -6.15470496
C       -3.89016278      -4.84660443      -5.54710383
H       -4.65733191      -4.73023760      -6.32389350
C       -2.58131708      -4.33691129      -6.06183217
O       -2.50278681      -3.23362252      -6.58624510
N       -1.59907358      -5.29206966      -5.85550064
C       -0.20864198      -5.12110483      -6.18503127
C        0.28822309      -3.91345792      -6.70886333
C        1.63784353      -3.75312459      -7.06046996
C        2.52914081      -4.80151423      -6.88744501
Br       4.34408695      -4.59333504      -7.36456371
C        2.08079432      -6.00478972      -6.36530256
C        0.72860074      -6.15863389      -6.02127938
C       -2.14222276      -6.44660222      -5.30991582
O       -1.56557125      -7.45486514      -4.91837473
H       -0.51227773      -3.51960633      -1.61320033
H       -1.92993519      -4.95154056      -2.97954228
H       -4.69132956      -1.66668033      -3.53291471
H       -3.25748512      -0.24761645      -2.14528395
H       -6.13335800      -5.40122976      -1.81172012
H       -4.46444296      -4.88777702      -1.57713307
H       -4.17971614      -7.09806602      -0.87261466
H       -5.54474945      -7.67330374      -1.85531731
H       -2.74113315      -6.96789070      -2.75421882
H       -3.67724820      -8.42394818      -3.16422022
H       -0.34561997      -3.04676084      -6.86813836
H        1.97108192      -2.80239547      -7.46940871
H        2.76441802      -6.83815371      -6.22226684
H        0.45507758      -7.13378824      -5.63124682
C       -1.79114519       1.79114519       1.79114519
C       -3.03715232       2.20518078       1.33173068
C       -3.85320097       2.99840068       2.14549494
C       -3.43909887       3.38635571       3.42959138
C       -2.16848650       2.96065916       3.86438286
C       -1.35044042       2.16841216       3.05405050
C       -4.29313016       4.20913233       4.38687953
H       -3.70978065       4.31111947       5.31247387
N       -5.58729533       3.64732327       4.80442656
C       -5.84333277       2.21401753       4.75785313
C       -7.24534621       2.10905649       4.17079920
C       -7.37980598       3.36725278       3.33114662
N       -6.65256738       4.33129507       4.13702590
C       -6.13782920       5.57175485       3.56895760
H       -6.69108843       6.42846357       3.97298261
C       -4.68483346       5.62863762       3.97039996
H       -4.57593552       6.31554217       4.81998531
C       -3.99949771       6.20733854       2.77322429
O       -2.85032484       6.62190276       2.85042684
N       -4.86481554       6.19056816       1.69126018
C       -4.52378342       6.62776794       0.36322671
C       -3.22877732       7.06971014       0.03561070
C       -2.90038899       7.52609594      -1.25073391
C       -3.86422932       7.54340947      -2.24782035
Br      -3.42958749       8.16214840      -3.97792408
C       -5.14981864       7.10716875      -1.96768942
C       -5.47134170       6.65739801      -0.67742718
C       -6.11391851       5.71741471       2.06740759
O       -7.09013054       5.48519856       1.36348202
H       -3.38969010       1.90842495       0.34696934
H       -4.82621924       3.27670314       1.75809564
H       -1.80205962       3.23647350       4.85239149
H       -0.37859629       1.84990784       3.42188139
H       -5.80649349       1.77818359       5.76163081
H       -5.14990663       1.64746214       4.13198428
H       -7.37529373       1.20048326       3.57461983
H       -7.99324129       2.10653437       4.97359484
H       -6.92671187       3.18366226       2.35286854
H       -8.42634589       3.65148112       3.18758959
H       -2.42001346       7.08097265       0.75953305
H       -1.88709054       7.86526003      -1.45162831
H       -5.91900857       7.11319276      -2.73619881
H       -6.50102284       6.34494782      -0.53601319
C        1.79114519      -1.79114519       1.79114519
C        1.55704282      -3.16081067       1.85621028
C        2.37507343      -3.97212569       2.64989747
C        3.43963034      -3.42893460       3.38648102
C        3.64674712      -2.03758766       3.30919374
C        2.83137239      -1.22395412       2.51757657
C        4.39818001      -4.25706172       4.23390029
H        5.13369215      -3.55284186       4.64683997
N        5.19232139      -5.29252487       3.55419891
C        5.46721005      -5.22265559       2.12533779
C        5.24091851      -6.64781770       1.63646569
C        4.23802968      -7.21367030       2.62650540
N        4.66912361      -6.58811302       3.86365172
C        3.78289178      -6.47912670       5.01652317
H        4.13793787      -7.12809824       5.82649850
C        3.82883691      -5.02821776       5.42681638
H        4.49186712      -4.92387480       6.29572108
C        2.42290999      -4.72152950       5.83562104
O        2.16181810      -3.70126518       6.45957116
N        1.58581952      -5.74335635       5.41746801
C        0.15818592      -5.75811612       5.59847603
C       -0.52820047      -4.67838403       6.18391460
C       -1.91658996      -4.70196071       6.39038028
C       -2.65645038      -5.81026239       6.00600643
Br      -4.52311191      -5.84981055       6.28711316
C       -2.01867062      -6.89093915       5.41702943
C       -0.62928885      -6.86156998       5.21903141
C        2.31398978      -6.76325855       4.82149247
O        1.90302037      -7.77357495       4.26221579
H        0.74839427      -3.61101256       1.28567756
H        2.17307515      -5.03678062       2.65116226
H        4.45919291      -1.56877676       3.86295494
H        3.02224947      -0.15492502       2.47321103
H        6.49903979      -4.90580050       1.94146760
H        4.81526936      -4.54552013       1.56856356
H        4.86560690      -6.67602414       0.60876578
H        6.17835996      -7.21637697       1.67863357
H        3.23315390      -6.91726935       2.31281942
H        4.28488335      -8.30549897       2.67503428
H       -0.01997362      -3.77480426       6.50568852
H       -2.39938471      -3.84548393       6.85462304
H       -2.58165012      -7.76868937       5.10896328
H       -0.20459508      -7.75061130       4.76394126
C       -0.00445707       0.01189536      -1.78238275
H       -0.66409135       0.67374010      -2.43557963
H        0.65740317      -0.63156657      -2.45157240
C       -0.90989263      -0.90692880      -0.91072765
C        0.90977584       0.90977584      -0.90977584
C       -0.00465871       1.77757030       0.00794375
H       -0.66225468       2.44313916      -0.64384735
H        0.64322798       2.43503045       0.67728295
C       -1.78241447       0.00034974      -0.00472694
H       -2.45427497      -0.65498947       0.64260836
H       -2.43311707       0.67328779      -0.65473579
C       -0.91132561       0.90220522       0.91563759
C       -0.01476271      -0.02253852       1.78660255
H       -0.67934791      -0.69751639       2.42135241
H        0.63392994       0.61504881       2.47327442
C        0.01484550      -1.77751727      -0.01636693
H        0.67870853      -2.42144646      -0.68295456
H       -0.62264859      -2.45592969       0.64226336
C        1.78714474       0.01002794       0.00389507
H        2.44202412       0.67113390       0.66197326
H        2.45385902      -0.65136977      -0.64189061
C        0.91606151      -0.90478549       0.90901405
