173
Properties=species:S:1:pos:R:3 pbc="F F F"
C        0.00000000       0.00000000       0.00000000
C        0.88124117       0.88124117      -0.88124117
C        2.22717507       0.57096891      -1.04620772
C        3.03189106       1.36781899      -1.86767448
C        2.50434948       2.48260526      -2.53837915
C        1.14065134       2.77846480      -2.34470031
C        0.33378967       1.98482535      -1.52457598
C        3.30922623       3.36652950      -3.48367422
H        2.61064447       4.12013795      -3.87287949
N        3.90051095       2.73501669      -4.67380545
C        3.36015666       1.49981639      -5.22551830
C        4.59534301       0.66377047      -5.53637635
C        5.63122277       1.16950105      -4.54776950
N        5.31230910       2.58481154      -4.49405563
C        5.74128768       3.42525498      -3.38228692
H        6.50197541       4.13887021      -3.72197691
C        4.49922272       4.14151477      -2.91342148
H        4.50748264       5.16596004      -3.30830824
C        4.64322222       4.18213467      -1.42499157
O        3.93201611       4.91300935      -0.74791690
N        5.65847907       3.32395685      -1.03449589
C        6.04049456       3.07508304       0.33051160
C        5.35681346       3.65987896       1.41230633
C        5.74574330       3.44414273       2.74384709
C        6.82980961       2.62649540       3.02619865
Br       7.36104725       2.33798159       4.81492911
C        7.52409463       2.02409559       1.98860432
C        7.13200837       2.24928499       0.65969291
C        6.27415478       2.75470437      -2.14016958
O        7.14350620       1.89128770      -2.17430514
H        2.65970349      -0.29440519      -0.55007402
H        4.06822434       1.07491832      -1.98816330
H        0.68509114       3.63344060      -2.84268079
H       -0.71665971       2.23533670      -1.40199646
H        2.78357718       1.69802355      -6.13499509
H        2.71236434       0.94205672      -4.54521991
H        4.40649054      -0.40822278      -5.42241698
H        4.92961145       0.84922200      -6.56482498
H        5.48650806       0.65148395      -3.59553859
H        6.65152703       0.98678691      -4.89739060
H        4.49643449       4.30676497       1.27239237
H        5.18974452       3.92577510       3.54450944
H        8.37651068       1.37980246       2.19002269
H        7.73383351       1.75211732      -0.09429458
C       -0.88124117      -0.88124117      -0.88124117
C       -0.36518502      -2.05199684      -1.42716984
C       -1.17712713      -2.86956027      -2.22069712
C       -2.51550295      -2.53235439      -2.47747655
C       -3.00797716      -1.33602898      -1.91981031
C       -2.19967315      -0.51668376      -1.12683410
C       -3.46965602      -3.39701503      -3.29275889
H       -4.44128226      -2.88402589      -3.27835376
N       -3.74322152      -4.75876831      -2.80734326
C       -3.56261182      -5.11615832      -1.40672122
C       -2.86633959      -6.47033022      -1.45882001
C       -2.12292226      -6.44284433      -2.78272673
N       -3.05558648      -5.71306701      -3.62252279
C       -2.62899315      -5.06345163      -4.85638479
H       -3.05832005      -5.58213244      -5.72237004
C       -3.14069777      -3.64725441      -4.76620679
H       -4.04851229      -3.55622975      -5.37700888
C       -2.04825766      -2.82671073      -5.37538008
O       -2.24383449      -1.65982012      -5.68928776
N       -0.90707740      -3.60105530      -5.50879910
C        0.35242889      -3.12274683      -6.01474806
C        0.54618191      -1.77630818      -6.37425981
C        1.76364806      -1.31249258      -6.89719442
C        2.82505069      -2.18905662      -7.06610043
Br       4.46264283      -1.57186056      -7.77488200
C        2.67733779      -3.52189221      -6.71503147
C        1.45493482      -3.97870675      -6.19782852
C       -1.14997489      -4.90809220      -5.11096165
O       -0.35898064      -5.83909486      -5.01102355
H        0.66374285      -2.34529638      -1.23381880
H       -0.74204759      -3.78486053      -2.60439783
H       -4.03948202      -1.03074316      -2.09098736
H       -2.61198166       0.39603209      -0.70472388
H       -4.52803804      -5.19269158      -0.89586619
H       -2.94653931      -4.41872587      -0.83437579
H       -2.19101282      -6.61914914      -0.61052278
H       -3.60845580      -7.27847218      -1.45673045
H       -1.16947919      -5.92746333      -2.63658808
H       -1.92522363      -7.45039271      -3.16008820
H       -0.23446124      -1.02979304      -6.26655282
H        1.86066705      -0.26390363      -7.16777361
H        3.49796505      -4.22419980      -6.84005570
H        1.41610872      -5.03680881      -5.95954532
C       -0.88124117       0.88124117       0.88124117
C       -2.02632536       0.35122265       1.46680370
C       -2.82537938       1.15309775       2.28890739
C       -2.49128252       2.49316451       2.54088686
C       -1.33164896       3.00559493       1.92657256
C       -0.53116856       2.20755124       1.10447120
C       -3.28804715       3.41038987       3.46099293
H       -2.75456274       4.37086900       3.47823017
N       -3.42135573       3.01582088       4.87215647
C       -2.46246504       2.11930390       5.50372242
C       -3.33012028       1.15842183       6.30694771
C       -4.64838835       1.14694190       5.55316306
N       -4.74432417       2.52870034       5.11815176
C       -5.60940039       2.92592730       4.01350188
H       -6.44595766       3.52814292       4.38872196
C       -4.73604381       3.73287561       3.08523954
H       -4.93870073       4.80041958       3.24263062
C       -5.19571038       3.33672455       1.71791353
O       -4.86871632       3.98910977       0.73511628
N       -5.99848991       2.21100969       1.80743220
C       -6.57712863       1.52636269       0.68157468
C       -6.32155519       1.92591652      -0.64308562
C       -6.90863469       1.28001802      -1.74261376
C       -7.76426608       0.20723040      -1.54139011
Br      -8.56150716      -0.66106849      -3.01633893
C       -8.03432712      -0.22308541      -0.25165582
C       -7.44740263       0.43164200       0.84255582
C       -6.18938692       1.84685378       3.13278803
O       -6.76430707       0.86219105       3.58260092
H       -2.30212658      -0.68722232       1.30046807
H       -3.69378282       0.69251165       2.74501148
H       -1.03100640       4.03962519       2.09058095
H        0.36155676       2.63073233       0.65149788
H       -1.78326722       2.67369820       6.15963039
H       -1.84595322       1.54724302       4.80644473
H       -2.88580279       0.16049619       6.37438576
H       -3.47783084       1.54133833       7.32448926
H       -4.57238592       0.43247090       4.72867378
H       -5.48339791       0.85540174       6.19690488
H       -5.65964438       2.75257482      -0.88141211
H       -6.68577855       1.63210394      -2.74687231
H       -8.70241373      -1.06232500      -0.07379828
H       -7.71890794       0.04264875       1.81868872
C        0.88124117      -0.88124117       0.88124117
C        0.74918438      -2.26506442       0.83010291
C        1.56843695      -3.07454327       1.62440430
C        2.53269947      -2.51499972       2.47763470
C        2.63712435      -1.11060177       2.51609032
C        1.82018671      -0.29878681       1.72421748
C        3.48915035      -3.33529593       3.33498366
H        4.13691158      -2.61421061       3.85253972
N        4.40713194      -4.25600960       2.64619155
C        4.77718180      -4.05693815       1.25137140
C        4.69672850      -5.45276663       0.64599470
C        3.67221219      -6.16330955       1.51297157
N        3.96442161      -5.60561993       2.82113473
C        2.99235675      -5.64925171       3.90722111
H        3.33752757      -6.33160664       4.69368833
C        2.89709166      -4.23465320       4.42241412
H        3.48636599      -4.15039397       5.34499096
C        1.44613571      -4.06153748       4.74267528
O        1.06340914      -3.11357512       5.41595811
N        0.72217054      -5.10532850       4.18943277
C       -0.70936544      -5.23590510       4.25852634
C       -1.51686142      -4.25621695       4.86503055
C       -2.91051004      -4.39471773       4.96183126
C       -3.53354078      -5.52016033       4.44348681
Br      -5.40692030      -5.71444894       4.57657109
C       -2.77405735      -6.50398739       3.82965585
C       -1.38047249      -6.36030686       3.74176609
C        1.56736802      -6.02172214       3.57993857
O        1.27636286      -7.01277063       2.91996555
H        0.02039983      -2.72663234       0.16834015
H        1.44939249      -4.14783910       1.53407436
H        3.36945105      -0.62896587       3.16279562
H        1.93091333       0.78138138       1.77114151
H        5.79205897      -3.65398611       1.17055074
H        4.11650500      -3.38726523       0.69587075
H        4.39906570      -5.42854003      -0.40692099
H        5.66972893      -5.95447124       0.71945826
H        2.67248667      -5.91618163       1.14486229
H        3.79935953      -7.24949165       1.48685336
H       -1.10395897      -3.34609212       5.28867395
H       -3.48970312      -3.61318306       5.44753025
H       -3.24437658      -7.39339101       3.41727602
H       -0.85720709      -7.17908030       3.25837219
