165
Properties=species:S:1:pos:R:3 pbc="F F F"
C        0.00000000       0.00000000       0.00000000
O        7.30451009       4.82849621      -4.88801323
C        6.69804821       4.06548402      -4.13600245
N        5.31989422       4.01867126      -4.16258592
N        4.61958871       3.17642592      -3.36390712
C        3.34015397       3.36050338      -3.32085600
C        2.48867286       2.49384754      -2.48247145
C        3.01383248       1.32656736      -1.91439506
C        2.20656481       0.51650192      -1.11499085
C        0.88165837       0.88165837      -0.88165837
C        0.35481418       2.04598467      -1.44436428
C        1.15897803       2.85509772      -2.25236733
C        7.40375568       3.17225452      -3.12941026
S        7.39369417       3.99223856      -1.50247344
C        7.91637282       2.68817933      -0.50001642
N        8.65372460       1.67454356      -0.87875012
N        8.82960340       0.86330847       0.21303222
C        8.17125040       1.37687066       1.24007194
C        8.11638345       0.76980131       2.57380218
C        9.25022358       0.09832346       3.05994719
C        9.24331292      -0.51379547       4.31622607
C        8.09731060      -0.46591367       5.10567122
C        6.96168509       0.18127213       4.62543931
Br       5.39757033       0.23811148       5.68754920
C        6.96078858       0.78584636       3.36567960
N        7.60485875       2.56902158       0.82760570
C        6.86529103       3.50733432       1.63254601
H        4.84991736       4.65258201      -4.79974194
H        2.84287595       4.17329814      -3.88076765
H        4.04820363       1.03893928      -2.09439670
H        2.62025411      -0.39142830      -0.68343154
H       -0.67789668       2.33032666      -1.25706155
H        0.74218204       3.76255807      -2.68095558
H        8.43492037       3.01642500      -3.46285398
H        6.91743787       2.19242832      -3.08556873
H       10.15194778       0.04386071       2.44987035
H       10.13093320      -1.03160132       4.67174312
H        8.09624306      -0.94361085       6.08193330
H        6.04603581       1.24371177       3.00278048
H        6.95440721       4.51623695       1.22611810
H        7.27020877       3.51906517       2.64711867
H        5.81606832       3.20073136       1.63772099
O       -4.49628257      -5.28465643      -7.24008054
C       -3.71342907      -4.55755977      -6.62854582
N       -3.86218777      -4.36847713      -5.27048649
N       -3.00735243      -3.59162462      -4.56094470
C       -3.35693942      -3.31848517      -3.34608876
C       -2.49273324      -2.48189794      -2.49036066
C       -1.18815052      -2.17226033      -2.89438405
C       -0.37941258      -1.37306378      -2.08558122
C       -0.88165837      -0.88165837      -0.88165837
C       -2.18272355      -1.18618441      -0.47625517
C       -2.99234136      -1.99341713      -1.28068461
C       -2.58126592      -3.81055442      -7.31360012
S       -3.12250855      -2.10574961      -7.66014801
C       -1.61477226      -1.39007501      -8.09972130
N       -0.58324567      -2.01865085      -8.60512177
N        0.40934238      -1.09190658      -8.79731546
C       -0.01835060       0.08852982      -8.37822834
C        0.78174632       1.31700135      -8.41113026
C        1.67263364       1.51716726      -9.47840076
C        2.47183569       2.66154033      -9.54666740
C        2.39374617       3.62388019      -8.54335208
C        1.52730342       3.42642693      -7.47124826
Br       1.42657304       4.72368496      -6.09839062
C        0.73383759       2.27886554      -7.39365847
N       -1.32791816      -0.05896983      -7.95938663
C       -2.21762925       0.97609512      -7.49854521
H       -4.64899700      -4.82812059      -4.82512372
H       -4.30992368      -3.67355705      -2.91346101
H       -0.79320502      -2.55414331      -3.83419127
H        0.63437758      -1.14312632      -2.40350862
H       -2.57305481      -0.79788657       0.46144985
H       -4.00562358      -2.22001647      -0.96005564
H       -2.34023358      -4.32368740      -8.25027837
H       -1.68376769      -3.82478935      -6.68687788
H        1.75226705       0.76848028     -10.26668547
H        3.15755542       2.79483371     -10.37997789
H        3.01737498       4.51220969      -8.60028358
H        0.10176559       2.13444499      -6.52317767
H       -3.25665426       0.70383543      -7.69170723
H       -2.01011793       1.90416631      -8.03620365
H       -2.06198649       1.10748224      -6.42457444
O       -6.99414485       5.84281860       4.18405608
C       -6.37107374       5.14190433       3.38655661
N       -5.20369115       4.52007218       3.77738806
N       -4.50231468       3.72468808       2.93291898
C       -3.32639866       3.36317275       3.33194194
C       -2.48463612       2.49489006       2.48546567
C       -3.03022759       1.86395728       1.36061003
C       -2.22702071       1.05206046       0.55897641
C       -0.88165837       0.88165837       0.88165837
C       -0.33320421       1.51084502       2.00111389
C       -1.13757576       2.31820913       2.81065820
C       -6.81314585       4.94635803       1.94591658
S       -5.89650262       6.10842262       0.88348092
C       -6.29750890       5.48027758      -0.67321792
N       -7.37765393       4.80444464      -0.97508029
N       -7.30309450       4.48310864      -2.30632349
C       -6.16183975       4.94166436      -2.79545499
C       -5.72963491       4.76877367      -4.18602599
C       -6.69628569       4.79696876      -5.20465459
C       -6.33921701       4.61791347      -6.54383909
C       -5.00614106       4.40398025      -6.88439560
C       -4.04231171       4.35569970      -5.88049351
Br      -2.23165896       4.05203747      -6.33556382
C       -4.39619995       4.52400219      -4.53924680
N       -5.50880880       5.62066708      -1.78320126
C       -4.27043890       6.35023819      -1.88059776
H       -4.88448603       4.69339514       4.72436014
H       -2.90114547       3.70150772       4.29428854
H       -4.08038333       1.99539930       1.10575698
H       -2.66018597       0.56058546      -0.30851407
H        0.71763269       1.37930511       2.24781911
H       -0.70061919       2.80881923       3.67625727
H       -7.88738189       5.14729738       1.87952008
H       -6.64978592       3.90897123       1.63667777
H       -7.74530650       4.95390338      -4.95327173
H       -7.10418072       4.63973616      -7.31632813
H       -4.73294768       4.26488410      -7.92713287
H       -3.62769703       4.43697933      -3.77770926
H       -4.23317612       7.14545741      -1.13410747
H       -4.19476705       6.81414787      -2.86675964
H       -3.44725516       5.64967857      -1.71785504
O        5.84360914      -6.99367803       4.18373236
C        5.15115584      -6.36561070       3.38276813
N        4.65137180      -5.12615852       3.72362107
N        3.90269289      -4.39720256       2.86002629
C        3.31766423      -3.35327151       3.35057760
C        2.48181388      -2.49235762       2.49082035
C        2.50042603      -2.65439178       1.09997710
C        1.70084034      -1.84391515       0.29330208
C        0.88165837      -0.88165837       0.88165837
C        0.85845696      -0.71844040       2.26826576
C        1.66466790      -1.52349290       3.07828229
C        4.77973132      -6.91153919       2.01414995
S        3.12138404      -7.66035366       2.10666845
C        2.79326148      -7.88419620       0.42711089
N        3.68701835      -8.03749594      -0.51749600
N        3.01242889      -8.17153324      -1.70408248
C        1.71315861      -8.06827755      -1.47338704
C        0.68063762      -8.14368577      -2.51194080
C        0.87434117      -9.01260354      -3.59834485
C       -0.06994162      -9.10740292      -4.62416991
C       -1.22388604      -8.32940509      -4.57979333
C       -1.41694012      -7.45106473      -3.51660671
Br      -2.97606733      -6.38176607      -3.45756612
C       -0.47059117      -7.34551530      -2.49396879
N        1.53472218      -7.92156579      -0.11001334
C        0.28495677      -7.85199726       0.60312531
H        4.85894666      -4.78672760       4.65656706
H        3.39832221      -3.08017700       4.41844253
H        3.13875211      -3.40523167       0.63755582
H        1.72641718      -1.97176048      -0.78592030
H        0.21523094       0.03024504       2.72450562
H        1.63539257      -1.39352951       4.15677361
H        5.51643241      -7.66940707       1.72835988
H        4.81633536      -6.11398595       1.26511360
H        1.77707080      -9.62123120      -3.65236386
H        0.10165421      -9.78392535      -5.45799081
H       -1.95547735      -8.40608105      -5.37990478
H       -0.63006406      -6.61979424      -1.70276308
H        0.40549550      -8.21313439       1.62589618
H       -0.45455894      -8.48695001       0.10976420
H       -0.04483695      -6.80987566       0.61403998
