186
Properties=species:S:1:pos:R:3 pbc="F F F"
O        8.21441412       5.73840024      -5.79791725
C        7.60795223       4.97538804      -5.04590647
N        6.22979824       4.92857528      -5.07248995
N        5.52949274       4.08632994      -4.27381114
C        4.25005800       4.27040740      -4.23076002
C        3.39857689       3.40375156      -3.39237547
C        3.92373651       2.23647138      -2.82429909
C        3.11646883       1.42640595      -2.02489488
C        1.79156240       1.79156240      -1.79156240
C        1.26471820       2.95588869      -2.35426831
C        2.06888206       3.76500175      -3.16227136
C        8.31365970       4.08215855      -4.03931428
S        8.30359819       4.90214258      -2.41237746
C        8.82627684       3.59808335      -1.40992045
N        9.56362862       2.58444759      -1.78865415
N        9.73950743       1.77321249      -0.69687181
C        9.08115443       2.28677468       0.33016792
C        9.02628748       1.67970534       1.66389815
C       10.16012761       1.00822748       2.15004317
C       10.15321695       0.39610856       3.40632205
C        9.00721462       0.44399036       4.19576719
C        7.87158911       1.09117615       3.71553529
Br       6.30747435       1.14801551       4.77764517
C        7.87069260       1.69575039       2.45577558
N        8.51476277       3.47892560      -0.08229832
C        7.77519506       4.41723834       0.72264199
H        5.75982139       5.56248603      -5.70964596
H        3.75277997       5.08320216      -4.79067168
H        4.95810765       1.94884330      -3.00430073
H        3.53015814       0.51847573      -1.59333557
H        0.23200734       3.24023069      -2.16696557
H        1.65208607       4.67246209      -3.59085960
H        9.34482439       3.92632902      -4.37275801
H        7.82734189       3.10233235      -3.99547275
H       11.06185181       0.95376474       1.53996632
H       11.04083722      -0.12169730       3.76183910
H        9.00614708      -0.03370682       5.17202927
H        6.95593983       2.15361579       2.09287646
H        7.86431123       5.42614098       0.31621407
H        8.18011280       4.42896919       1.73721465
H        6.72597235       4.11063538       0.72781697
O       -8.21209621      -5.85026048      -5.68837492
C       -7.60582247      -5.09400096      -4.92942331
N       -6.23378840      -4.98238369      -5.01469138
N       -5.53520677      -4.14477632      -4.20965073
C       -4.24826638      -4.27121855      -4.23174049
C       -3.39806146      -3.40401502      -3.39262744
C       -3.94746266      -2.28851282      -2.74853150
C       -3.14068222      -1.47810561      -1.94898182
C       -1.79156240      -1.79156240      -1.79156240
C       -1.24036228      -2.90427620      -2.43023672
C       -2.04448494      -3.71320946      -3.23846076
C       -8.30301404      -4.27971576      -3.85240273
S       -8.18150698      -5.16945342      -2.26715783
C       -8.71439118      -3.93653375      -1.18335571
N       -9.51254049      -2.94233148      -1.48185838
N       -9.67342560      -2.18913835      -0.34702778
C       -8.94623510      -2.71659396       0.62506787
C       -8.85663678      -2.16717109       1.98171320
C       -9.99535004      -1.57098054       2.54801865
C       -9.95741430      -1.01531316       3.82972401
C       -8.77513876      -1.04499329       4.56469427
C       -7.63544388      -1.61712028       4.00533418
Br      -6.02290822      -1.64845582       4.99351936
C       -7.66608280      -2.16474358       2.72015897
N       -8.34739181      -3.86188617       0.13329128
C       -7.53065208      -4.79965218       0.86051285
H       -5.76622196      -5.56510746      -5.70062396
H       -3.74197763      -5.03461124      -4.85006493
H       -5.00074994      -2.04134816      -2.86915357
H       -3.57369264      -0.61023496      -1.45804183
H       -0.18853949      -3.14856092      -2.30210318
H       -1.60825758      -4.58059884      -3.72655134
H       -9.35437211      -4.15715058      -4.13238874
H       -7.85896546      -3.28134609      -3.78483543
H      -10.92584451      -1.53136424       1.98155853
H      -10.84966098      -0.55532206       4.24768221
H       -8.75004171      -0.61136805       5.56099877
H       -6.74974942      -2.56333614       2.29640640
H       -7.59379332      -5.79264873       0.41220392
H       -7.88730863      -4.87491852       1.89035981
H       -6.49688796      -4.44538986       0.83348705
O       -7.26679627       7.52474440       4.95919094
C       -6.60569902       6.87229466       4.15125307
N       -5.81394919       5.83028426       4.58663001
N       -5.08860824       5.07722711       3.72379847
C       -4.22928523       4.26861387       4.25332632
C       -3.39235067       3.40372140       3.39863185
C       -3.67715081       3.27364781       2.03370835
C       -2.87653931       2.46211417       1.22911617
C       -1.79156240       1.79156240       1.79156240
C       -1.50280705       1.92040324       3.15166491
C       -2.30814222       2.72627182       3.96174112
C       -6.58874641       7.18259307       2.66379305
S       -5.12619896       8.20249553       2.28942374
C       -5.13770323       8.13154250       0.56503491
N       -6.18977364       7.93677004      -0.18981332
N       -5.76593582       7.93784064      -1.49418472
C       -4.45297327       8.10368423      -1.51889631
C       -3.64708131       8.13853352      -2.74352016
C       -4.19351690       8.72280533      -3.89801031
C       -3.47453934       8.76411331      -5.09564919
C       -2.19566883       8.21679147      -5.15702252
C       -1.65184460       7.61859444      -4.02320907
Br       0.07961010       6.86142515      -4.10397037
C       -2.37116175       7.56592162      -2.82641595
N       -4.02176133       8.26981490      -0.21558952
C       -2.68228950       8.55806916       0.22943274
H       -5.78817182       5.65798348       5.58579809
H       -4.07192000       4.20910848       5.34562532
H       -4.52346551       3.79634137       1.59144480
H       -3.10869972       2.36135174       0.17191797
H       -0.65324441       1.39935276       3.58660643
H       -2.07210622       2.82546434       5.01783719
H       -7.50167675       7.73149315       2.41074152
H       -6.58758116       6.25466667       2.08289916
H       -5.19722183       9.14704452      -3.86861613
H       -3.91800467       9.21797190      -5.97867574
H       -1.64019094       8.25082151      -6.09060147
H       -1.93653558       7.05389458      -1.97375100
H       -2.70012392       9.09439256       1.17972166
H       -2.18127780       9.19435562      -0.50376607
H       -2.15015412       7.61061516       0.34802149
O        7.45500705      -7.34204186       4.95368270
C        6.80527637      -6.67801079       4.14595959
N        5.90455961      -5.73380717       4.59249669
N        5.18704900      -4.97011201       3.73247281
C        4.23062399      -4.27027576       4.25032567
C        3.39278647      -3.40414930       3.39776815
C        3.76507730      -3.14690550       2.07252418
C        2.96389779      -2.33512203       1.26874983
C        1.79156240      -1.79156240       1.79156240
C        1.41559317      -2.04748982       3.11179221
C        2.22062517      -2.85372765       3.92180235
C        6.92105076      -6.87094679       2.64313499
S        5.57425322      -7.96203443       2.08183058
C        5.70562498      -7.75523318       0.37342249
N        6.79129139      -7.42572855      -0.28028958
N        6.46490986      -7.35520684      -1.61052497
C        5.17431777      -7.61371735      -1.75027393
C        4.46492689      -7.61084976      -3.03368199
C        5.13813179      -8.06132786      -4.18114772
C        4.51369882      -8.06067514      -5.43137050
C        3.20366519      -7.60475964      -5.55298705
C        2.53346799      -7.13862255      -4.42486057
Br       0.75838345      -6.50548370      -4.58602246
C        3.15740764      -7.12788462      -3.17462485
N        4.66377307      -7.91262834      -0.50041471
C        3.32224869      -8.33166412      -0.18412141
H        5.79267724      -5.64283920       5.59643695
H        3.98998991      -4.30834578       5.32831812
H        4.67976375      -3.57026553       1.66122240
H        3.26375627      -2.13501827       0.24319489
H        0.49833940      -1.62542480       3.51543940
H        1.91687031      -3.05246606       4.94607140
H        7.89025657      -7.33037332       2.42328153
H        6.88929979      -5.90282119       2.13302601
H        6.16724337      -8.41238420      -4.10397735
H        5.05452601      -8.41030262      -6.30752780
H        2.72200144      -7.60570790      -6.52729835
H        2.62301054      -6.71739542      -2.32372680
H        3.31293426      -8.93823387       0.72307000
H        2.92744989      -8.94317850      -0.99876105
H        2.71013626      -7.43770003      -0.03904553
C       -0.00445707       0.01189536      -1.78238275
H       -0.66409135       0.67374010      -2.43557963
H        0.65740317      -0.63156657      -2.45157240
C       -0.90989263      -0.90692880      -0.91072765
C        0.90977584       0.90977584      -0.90977584
C       -0.00465871       1.77757030       0.00794375
H       -0.66225468       2.44313916      -0.64384735
H        0.64322798       2.43503045       0.67728295
C       -1.78241447       0.00034974      -0.00472694
H       -2.45427497      -0.65498947       0.64260836
H       -2.43311707       0.67328779      -0.65473579
C       -0.91132561       0.90220522       0.91563759
C       -0.01476271      -0.02253852       1.78660255
H       -0.67934791      -0.69751639       2.42135241
H        0.63392994       0.61504881       2.47327442
C        0.01484550      -1.77751727      -0.01636693
H        0.67870853      -2.42144646      -0.68295456
H       -0.62264859      -2.45592969       0.64226336
C        1.78714474       0.01002794       0.00389507
H        2.44202412       0.67113390       0.66197326
H        2.45385902      -0.65136977      -0.64189061
C        0.91606151      -0.90478549       0.90901405
