165
Properties=species:S:1:pos:R:3 pbc="F F F"
C        0.00000000       0.00000000       0.00000000
C        0.88226148       0.88226148      -0.88226148
C        1.80154644       0.29732340      -1.75064104
C        2.60705642       1.10710670      -2.56023386
C        2.50621092       2.50340303      -2.51423633
C        1.57167850       3.06510693      -1.62677042
C        0.76328457       2.26615200      -0.81467765
C        3.34085107       3.35835487      -3.36967275
N        3.22159126       4.69479641      -3.35517992
N        4.09695321       5.22349835      -4.38284976
C        4.92455358       4.15473276      -4.94023451
H        5.96338785       4.32295560      -4.62852370
C        4.36678717       2.86745162      -4.33959860
C        4.84235530       4.14772238      -6.43722256
C        3.87931672       4.56301586      -7.33696370
C        4.38812990       4.30084188      -8.62879243
C        5.62515710       3.73119138      -8.44111526
O        5.90805471       3.62068247      -7.11716335
C        4.42375389       6.57003672      -4.44405968
O        5.44074842       7.00101824      -4.99179848
C        3.48566738       7.56889131      -3.84465951
C        4.01560597       8.73583275      -3.27963578
C        3.16628958       9.70021243      -2.72677693
C        1.78579505       9.49889113      -2.75001717
C        1.24477779       8.35564915      -3.33288498
C        2.09480411       7.39922471      -3.89230473
H        1.90152728      -0.78124185      -1.81074538
H        3.31568638       0.63419734      -3.23316828
H        1.47271234       4.14742305      -1.56921195
H        0.05303037       2.73953116      -0.14460226
H        3.91471357       2.20742627      -5.08924758
H        5.16011732       2.31034629      -3.82795497
H        2.93697378       5.01411463      -7.05815369
H        3.91462917       4.50925055      -9.57603721
H        6.39191043       3.37019813      -9.10945754
H        5.09281642       8.88123987      -3.26488081
H        3.59294532      10.59269386      -2.28117187
H        0.17209051       8.18552590      -3.35468390
H        1.67986371       6.50587902      -4.35039623
C        0.91126885      10.48433838      -2.16889959
C        0.17885316      11.30965045      -1.68221361
Br      -1.00540106      12.64411027      -0.89528354
C       -0.88226148      -0.88226148      -0.88226148
C       -1.85276337      -1.69568374      -0.30106377
C       -2.66204659      -2.50122775      -1.11112263
C       -2.51438680      -2.50546337      -2.50400011
C       -1.52535843      -1.67647324      -3.06172417
C       -0.71264472      -0.86901573      -2.26245377
C       -3.36834479      -3.34017116      -3.36036274
N       -3.25474928      -3.31960036      -4.69721794
N       -4.30514271      -4.15945618      -5.23870244
C       -4.99229156      -4.86754962      -4.15967967
H       -4.74622076      -5.93458057      -4.23406582
C       -4.44127263      -4.25967347      -2.87289130
C       -6.47637729      -4.68386786      -4.26705509
C       -7.27356062      -3.69483799      -4.81089766
C       -8.61373030      -4.09459622      -4.60943769
C       -8.55545316      -5.29681954      -3.94519105
O       -7.26609112      -5.65994948      -3.71985994
C       -4.29860645      -4.57834664      -6.56089720
O       -4.88835269      -5.58453570      -6.96067675
C       -3.56635567      -3.75807855      -7.57478398
C       -2.96360764      -4.40846159      -8.65900526
C       -2.28645356      -3.67086741      -9.63595796
C       -2.22289399      -2.28099687      -9.53081249
C       -2.84098776      -1.62010372      -8.47222045
C       -3.52418314      -2.35853809      -7.50361233
H       -1.99287965      -1.71272154       0.77457038
H       -3.41517499      -3.12641401      -0.64146299
H       -1.38759514      -1.66054527      -4.14120694
H        0.03778864      -0.24205378      -2.73289864
H       -5.19906124      -3.71110394      -2.30122225
H       -4.02753875      -5.04324580      -2.22763402
H       -6.89710080      -2.80881840      -5.30332290
H       -9.50776736      -3.57443186      -4.91771771
H       -9.30065659      -5.98828550      -3.58262400
H       -3.01735789      -5.49191017      -8.72966903
H       -1.81361541      -4.19044633     -10.46274931
H       -2.79624917      -0.53888280      -8.37716833
H       -4.01035584      -1.84970815      -6.67607498
C       -1.51436221      -1.52176230     -10.52838232
C       -0.92096683      -0.88590334     -11.36384705
Br       0.03850329       0.14222682     -12.71472286
C       -0.88226148       0.88226148       0.88226148
C       -1.67055472       1.87498327       0.30397289
C       -2.48036440       2.68049465       1.11353793
C       -2.51406485       2.50678109       2.50300434
C       -1.70626970       1.49901143       3.05827471
C       -0.89469035       0.68994238       2.25948148
C       -3.37052824       3.34150207       3.35684838
N       -3.43338812       3.15413444       4.68404503
N       -4.44215734       4.05516914       5.20597485
C       -4.89913550       4.96436229       4.15602305
H       -4.54464906       5.97524343       4.39497465
C       -4.25970873       4.44124145       2.87288722
C       -6.39585818       4.96257973       4.06886234
C       -7.36406624       4.02910957       4.38612046
C       -8.61265635       4.61871448       4.08639339
C       -8.33248146       5.87122208       3.59376021
O       -6.99189839       6.08833853       3.56566361
C       -4.55847156       4.31618064       6.56319809
O       -5.07622718       5.33781563       7.01952233
C       -4.06145659       3.29809893       7.53966268
C       -3.53337028       3.73739187       8.76031235
C       -3.07643797       2.81206742       9.70477354
C       -3.15876626       1.44674173       9.42919537
C       -3.70647314       0.99615200       8.23068678
C       -4.17033693       1.92213163       7.29386500
H       -1.66791208       2.03250163      -0.76938291
H       -3.09038088       3.44703666       0.64563446
H       -1.71160000       1.34245089       4.13529646
H       -0.28763244      -0.07809077       2.72762212
H       -4.99501367       4.06378647       2.15258729
H       -3.67957582       5.23334014       2.38550262
H       -7.15777572       3.05161117       4.79985520
H       -9.59242274       4.18646394       4.22103025
H       -8.94094450       6.68981939       3.24080220
H       -3.47187610       4.80353777       8.96352323
H       -2.65803809       3.16862066      10.64015231
H       -3.77344504      -0.06385605       8.00271131
H       -4.60055026       1.57797171       6.35761700
C       -2.67605156       0.49370207      10.39475320
C       -2.27177800      -0.30446865      11.20340788
Br      -1.61810184      -1.59504319      12.51093410
C        0.88226148      -0.88226148       0.88226148
C        0.30255247      -1.86491187       1.68204654
C        1.11264388      -2.67415544       2.48759766
C        2.50407872      -2.51439887       2.50537269
C        3.06028866      -1.51329117       1.68997602
C        2.26097139      -0.70050647       0.88263635
C        3.36060902      -3.36816656       3.34010310
N        4.69654182      -3.24274196       3.33228380
N        5.23990116      -4.29572092       4.16767924
C        4.16083124      -4.99845434       4.86023527
H        4.22374307      -4.76113975       5.92998433
C        2.87459508      -4.45335091       4.24589141
C        4.28285455      -6.47987424       4.66457145
C        4.84229165      -7.26355450       3.67345012
C        4.64914996      -8.60889444       4.05971982
C        3.97395872      -8.56698888       5.25651614
O        3.73413690      -7.28288475       5.62887889
C        6.55828444      -4.28134083       4.59822502
O        6.95444734      -4.87640667       5.60271113
C        7.57280476      -3.53309017       3.79332327
C        8.64596981      -2.92665537       4.45844931
C        9.62332265      -2.23454646       3.73540983
C        9.52974529      -2.15968285       2.34527522
C        8.48243413      -2.78114629       1.66973150
C        7.51347106      -3.47923065       2.39363184
H       -0.77191523      -2.01454639       1.68839965
H        0.64419364      -3.43682066       3.10203770
H        4.13861570      -1.36598566       1.68474598
H        2.73024600       0.05948638       0.26640417
H        2.31441894      -5.21124073       3.68572775
H        2.21891551      -4.05216772       5.02733535
H        5.33909341      -6.87503608       2.79511261
H        4.96980620      -9.49559930       3.53451143
H        3.61194522      -9.32137896       5.93824192
H        8.70765372      -2.98931570       5.54196768
H       10.44136081      -1.75910566       4.26634458
H        8.39642361      -2.72772918       0.58814751
H        6.69471052      -3.96810604       1.87332241
C       10.52762636      -1.43582851       1.60105195
C       11.36335176      -0.82960051       0.97776496
Br      12.71464904       0.15061891      -0.03003738
