129
Properties=species:S:1:pos:R:3 pbc="F F F"
C        0.00000000       0.00000000       0.00000000
C        3.13346970       8.37771333      -3.53349546
C        2.98612359       7.70015439      -4.67694526
O        3.00847659       6.35307744      -4.88954286
C        3.20787526       5.50509973      -3.75460797
C        3.27333922       4.06989393      -4.26003287
N        3.48638118       3.10279712      -3.19813703
C        2.47410735       2.47258465      -2.49933759
C        1.07804658       2.62752667      -2.55226656
C        0.29247245       1.81584662      -1.72804585
C        0.88288123       0.88288123      -0.88288123
C        2.27092749       0.73712831      -0.82659570
C        3.08303474       1.54958580      -1.64686364
C        4.49702866       1.66158886      -1.82577697
C        5.60301079       1.00225656      -1.24689968
C        6.89379028       1.35776828      -1.64395284
Br       8.37831971       0.47277443      -0.87342663
C        7.10486870       2.34994887      -2.59526133
C        6.02348824       3.01311910      -3.18390512
C        4.72530989       2.64894683      -2.78669102
H        3.09278987       9.46219973      -3.54078042
H        3.29447342       7.90016365      -2.57581352
H        2.82597033       8.20782360      -5.62350452
H        2.37394111       5.62259536      -3.05125037
H        4.14681683       5.76460773      -3.24764133
H        4.07596634       3.95808871      -4.99858309
H        2.35376651       3.80443048      -4.79357293
H        0.60805170       3.35040450      -3.21171885
H       -0.78943657       1.92161877      -1.75973353
H        2.72658546       0.00841424      -0.16332847
H        5.44416447       0.22809006      -0.50241442
H        8.11537764       2.61823250      -2.89435649
H        6.19835137       3.78430970      -3.92788223
C       -4.09972900      -2.66297606      -8.28197342
C       -5.17158008      -2.70803044      -7.48361272
O       -5.23314023      -2.88530565      -6.13265100
C       -3.99864011      -3.04219451      -5.42674834
C       -4.33605751      -3.30261195      -3.96459657
N       -3.15951232      -3.49261873      -3.13518429
C       -2.49889995      -2.47700152      -2.47012812
C       -2.70495006      -1.08656162      -2.46632813
C       -1.87830577      -0.29934172      -1.65871743
C       -0.88288123      -0.88288123      -0.88288123
C       -0.67529601      -2.26412716      -0.89522832
C       -1.49551408      -3.07708793      -1.70688218
C       -1.54609156      -4.48432624      -1.95397668
C       -0.79331978      -5.58003188      -1.47881537
C       -1.09825491      -6.86524894      -1.93200755
Br      -0.09424606      -8.33668908      -1.29358563
C       -2.12656368      -7.08030075      -2.84321447
C       -2.88700290      -6.00961795      -3.32389161
C       -2.58169154      -4.71791314      -2.86134306
H       -4.22890900      -2.51723143      -9.34962959
H       -3.08463496      -2.76486054      -7.92095508
H       -6.17886482      -2.60282501      -7.87560862
H       -3.39738541      -2.12921205      -5.52118939
H       -3.43334119      -3.89042364      -5.83530106
H       -4.97581309      -4.18789588      -3.86892915
H       -4.92509703      -2.47701766      -3.54965523
H       -3.48200543      -0.62252520      -3.06564443
H       -2.02720257       0.77782444      -1.64253760
H        0.10476288      -2.71413821      -0.28895284
H        0.01179601      -5.41778175      -0.76868321
H       -2.35257753      -8.08616085      -3.18922826
H       -3.68972238      -6.18794863      -4.03287229
C       -5.50694328       1.88098928       7.65674592
C       -6.29509007       2.37311192       6.69502124
O       -5.95787521       2.83605488       5.45716679
C       -4.57559783       2.80234542       5.08963971
C       -4.45143082       3.43979891       3.71203629
N       -3.08409756       3.47822280       3.22499498
C       -2.49579858       2.48423530       2.46599571
C       -2.97666688       1.23037201       2.05080091
C       -2.14691168       0.43691192       1.25254133
C       -0.88288123       0.88288123       0.88288123
C       -0.40473870       2.12591014       1.30400265
C       -1.22418661       2.94106722       2.11423034
C       -1.04605698       4.22847994       2.70985757
C        0.01571850       5.15888123       2.70900430
C       -0.12562088       6.35622005       3.41367046
Br       1.29384139       7.60756773       3.41079443
C       -1.29121533       6.64295674       4.11590683
C       -2.35649441       5.73701125       4.12700680
C       -2.21366108       4.53540026       3.41188641
H       -5.94206718       1.55700087       8.59670197
H       -4.43417632       1.78230728       7.55396698
H       -7.36941086       2.46018153       6.82770606
H       -4.22348295       1.76352619       5.06077770
H       -3.97608893       3.36650885       5.81646811
H       -4.84520926       4.46300574       3.72442313
H       -5.06691431       2.90457213       2.98028348
H       -3.96348727       0.87553190       2.33115588
H       -2.50582228      -0.53455602       0.92064946
H        0.58385313       2.46818675       1.01399455
H        0.92871499       4.93946515       2.16391879
H       -1.38762916       7.57848107       4.66185641
H       -3.26359987       5.97117229       4.67577114
C        8.32032054      -2.79030734       3.93405060
C        7.86599926      -3.97774150       3.51948248
O        6.58204399      -4.37751101       3.29154189
C        5.54063753      -3.42036254       3.50658289
C        4.21241164      -4.12547966       3.26537472
N        3.06469438      -3.25855763       3.46406333
C        2.47674120      -2.49896020       2.47032818
C        2.83205280      -2.30094709       1.12483992
C        2.01467145      -1.48128382       0.34040965
C        0.88288123      -0.88288123       0.88288123
C        0.53711692      -1.07502147       2.22251311
C        1.35089912      -1.89504941       3.03353564
C        1.29164339      -2.28505454       4.40769656
C        0.39843179      -1.99262794       5.46110730
C        0.62985668      -2.54146872       6.72418600
Br      -0.56800798      -2.15528428       8.13724447
C        1.72466105      -3.36615421       6.95926364
C        2.61977345      -3.67159996       5.92913905
C        2.38089973      -3.12260540       4.65744262
H        9.38630910      -2.63902542       4.07043550
H        7.67499687      -1.94815850       4.14729522
H        8.53880188      -4.80495225       3.31354432
H        5.65719445      -2.58081562       2.80977677
H        5.57988210      -3.04230728       4.53687650
H        4.11154086      -4.99348586       3.92761141
H        4.16898102      -4.53348335       2.24930555
H        3.71148970      -2.76704861       0.69163675
H        2.27453527      -1.32071812      -0.70333766
H       -0.34663657      -0.60366928       2.64129546
H       -0.45698847      -1.34794997       5.28370746
H        1.89411772      -3.78575796       7.94809097
H        3.46996323      -4.31881417       6.12176590
