137
Properties=species:S:1:pos:R:3 pbc="F F F"
C        0.00000000       0.00000000       0.00000000
C        3.13346970       8.37771333      -3.53349546
C        2.98612359       7.70015439      -4.67694526
O        3.00847659       6.35307744      -4.88954286
C        3.20787526       5.50509973      -3.75460797
C        3.27333922       4.06989393      -4.26003287
N        3.48638118       3.10279712      -3.19813703
C        2.47410735       2.47258465      -2.49933759
C        1.07804658       2.62752667      -2.55226656
C        0.29247245       1.81584662      -1.72804585
C        0.88288123       0.88288123      -0.88288123
C        2.27092749       0.73712831      -0.82659570
C        3.08303474       1.54958580      -1.64686364
C        4.49702866       1.66158886      -1.82577697
C        5.60301079       1.00225656      -1.24689968
C        6.89379028       1.35776828      -1.64395284
C        7.10486870       2.34994887      -2.59526133
C        6.02348824       3.01311910      -3.18390512
C        4.72530989       2.64894683      -2.78669102
H        3.09278987       9.46219973      -3.54078042
H        3.29447342       7.90016365      -2.57581352
H        2.82597033       8.20782360      -5.62350452
H        2.37394111       5.62259536      -3.05125037
H        4.14681683       5.76460773      -3.24764133
H        4.07596634       3.95808871      -4.99858309
H        2.35376651       3.80443048      -4.79357293
H        0.60805170       3.35040450      -3.21171885
H       -0.78943657       1.92161877      -1.75973353
H        2.72658546       0.00841424      -0.16332847
H        5.44416447       0.22809006      -0.50241442
H        8.11537764       2.61823250      -2.89435649
H        6.19835137       3.78430970      -3.92788223
C        8.02349296       0.68430240      -1.05759497
C        8.96961895       0.12027472      -0.56652025
Br      10.49942467      -0.79171033       0.22750603
C       -8.38399029      -3.42152047      -3.23916772
C       -7.73479255      -4.57567298      -3.05275770
O       -6.39249545      -4.81737373      -3.04122770
C       -5.51594106      -3.70538511      -3.24625680
C       -4.09101515      -4.24259474      -3.26965612
N       -3.09669704      -3.20644762      -3.48417069
C       -2.47313490      -2.49935832      -2.47353637
C       -2.65891699      -2.51855219      -1.08037062
C       -1.84640731      -1.69490593      -0.29505169
C       -0.88288123      -0.88288123      -0.88288123
C       -0.70638170      -0.85996191      -2.26830788
C       -1.51901678      -1.68021860      -3.08024881
C       -1.60472326      -1.88745959      -4.49221164
C       -0.90951295      -1.34699535      -5.59565873
C       -1.24599280      -1.76440034      -6.88511826
C       -2.25393355      -2.69871458      -7.09743076
C       -2.95266832      -3.24939482      -6.01844931
C       -2.60768615      -2.83185242      -4.72140916
H       -9.46899876      -3.40479849      -3.22197276
H       -7.88237107      -2.47796992      -3.41010959
H       -8.26625692      -5.50748249      -2.88355904
H       -5.63583884      -2.98168565      -2.43026236
H       -5.74427125      -3.21357329      -4.20122135
H       -3.97823904      -5.00066726      -4.05373183
H       -3.85689820      -4.76151646      -2.33335526
H       -3.40584128      -3.15205192      -0.61228186
H       -1.97588308      -1.70075906       0.78472642
H        0.04615359      -0.22246117      -2.72202059
H       -0.12287643      -0.61589864      -5.43589388
H       -2.50706662      -3.01396189      -8.10693814
H       -3.73597783      -3.98039593      -6.19416954
C       -0.53598689      -1.21727693      -8.01212650
C        0.05864306      -0.75906107      -8.95599590
Br       1.02010939      -0.01816479     -10.48215290
C       -2.78544463       8.31904538       3.94018847
C       -2.77709921       7.55115375       5.03497028
O       -2.91331387       6.19808626       5.13969675
C       -3.08439485       5.45253642       3.93065168
C       -3.29268427       3.99402696       4.31655479
N       -3.49164067       3.12581595       3.16985872
C       -2.47618499       2.47076884       2.49907575
C       -1.08096506       2.51213581       2.66473894
C       -0.29426491       1.70339841       1.83870159
C       -0.88288123       0.88288123       0.88288123
C       -2.26920587       0.85026897       0.71517665
C       -3.08192419       1.66213437       1.53542562
C       -4.49375206       1.87083213       1.61981029
C       -5.59599678       1.34334644       0.91282381
C       -6.88471166       1.76878918       1.24201056
C       -7.09703257       2.70301264       2.25003368
C       -6.01973410       3.23552678       2.96525158
C       -4.72427603       2.80090726       2.63576446
H       -2.66714253       9.39368228       4.03494521
H       -2.90538482       7.92601118       2.93905458
H       -2.65495928       7.97500729       6.02733188
H       -2.19184393       5.55519405       3.30074886
H       -3.95971122       5.82045376       3.37890090
H       -4.15643866       3.89204122       4.98415825
H       -2.43912984       3.61977681       4.89286327
H       -0.61278914       3.14657630       3.41080962
H        0.78668580       1.72190884       1.95669269
H       -2.72325071       0.20918317      -0.03410571
H       -5.43597546       0.61501813       0.12367537
H       -8.10573495       3.02694917       2.49528252
H       -6.19585695       3.96218185       3.75250450
C       -8.01098107       1.22964079       0.52476846
C       -8.95423170       0.77810402      -0.07592180
Br     -10.47938820       0.04800724      -1.04718714
C        8.32670250      -2.81551402       3.90246197
C        7.86324238      -4.00266761       3.49731324
O        6.57574032      -4.39635696       3.27899960
C        5.54106286      -3.43203714       3.49448296
C        4.20747335      -4.13088577       3.26490690
N        3.06587995      -3.25627271       3.46516268
C        2.47657764      -2.49899606       2.47045589
C        2.82528669      -2.31070489       1.12184823
C        2.00810744      -1.49085370       0.33740378
C        0.88288123      -0.88288123       0.88288123
C        0.54371905      -1.06538792       2.22554452
C        1.35744978      -1.88543141       3.03660299
C        1.30385603      -2.26724354       4.41329492
C        0.41838676      -1.96369093       5.47008934
C        0.65392047      -2.50663527       6.73495565
C        1.74533272      -3.33623473       6.96851145
C        2.63276206      -3.65268411       5.93506628
C        2.38973119      -3.10959242       4.66162413
H        9.39430189      -2.66957575       4.03189238
H        7.68742842      -1.96847310       4.11454906
H        8.53012166      -4.83488692       3.29228988
H        5.65840755      -2.59716212       2.79221717
H        5.58837514      -3.04834118       4.52234958
H        4.10545355      -4.99450638       3.93267820
H        4.15588592      -4.54442402       2.25145998
H        3.69954968      -2.78430913       0.68631624
H        2.26288963      -1.33773943      -0.70871334
H       -0.33491319      -0.58659069       2.64665067
H       -0.43434528      -1.31513765       5.29387658
H        1.91806389      -3.75115541       7.95874734
H        3.48033669      -4.30365666       6.12654995
C       -0.24975807      -2.20139901       7.81374938
C       -1.00658886      -1.94576365       8.71723913
Br      -2.23032022      -1.53242288      10.17810564
