166
Properties=species:S:1:pos:R:3 pbc="F F F"
C        1.79126086       1.79126086      -1.79126086
C        2.45459337       1.23739529      -2.88155887
C        3.27694632       2.04337234      -3.67479802
C        3.42904354       3.41142111      -3.40002573
C        2.75497891       3.94820546      -2.29242599
C        1.94014841       3.14237224      -1.49015928
N        4.30685080       4.22866044      -4.19125689
C        3.93863192       5.50292115      -4.64978954
N        4.77409724       6.35298788      -5.16240421
C        6.10898344       5.97960982      -5.31503394
C        7.01231856       6.91599994      -5.82458505
C        8.35333121       6.57805006      -6.02200657
C        8.80015046       5.29395421      -5.71541015
C        7.90614173       4.35247833      -5.20643870
C        6.56366029       4.70265840      -5.00807088
C        5.60733141       3.74680416      -4.41879016
O        6.02584598       2.62856032      -4.12540557
C        2.51427569       5.93063386      -4.63409048
C        2.19130683       7.05958869      -3.86485828
C        0.88892906       7.55935610      -3.86481338
C       -0.08989821       6.94806558      -4.64628149
C        0.23424266       5.84593852      -5.44070409
C        1.53939775       5.34151606      -5.44954144
Br       1.91859757       3.93155767      -6.66325611
H        2.35140650       0.18206495      -3.12017116
H        3.78885495       1.58904282      -4.52116220
H        2.89929746       4.98404135      -1.99828858
H        1.44509334       3.57457493      -0.62440739
H        6.66321254       7.91588891      -6.07130672
H        9.04567656       7.31726783      -6.41717663
H        9.84310367       5.02745063      -5.86809389
H        8.25588023       3.35309078      -4.95695778
H        2.95947906       7.55871107      -3.27784807
H        0.64189809       8.43600074      -3.27041377
H       -1.10253896       7.34533978      -4.65805895
H       -0.53465030       5.40346783      -6.07038306
C       -1.79126086      -1.79126086      -1.79126086
C       -2.00633375      -3.12159891      -1.44561486
C       -2.79780929      -3.93137271      -2.26593468
C       -3.39746382      -3.41693647      -3.42609011
C       -3.16305035      -2.07390645      -3.75865356
C       -2.36273829      -1.26386521      -2.94607643
N       -4.17611079      -4.26126729      -4.28939004
C       -5.41274642      -3.86041103      -4.81818516
N       -6.02711389      -4.49142213      -5.77095331
C       -5.46306894      -5.66091686      -6.27964140
C       -6.10615526      -6.30982947      -7.33691882
C       -5.59391456      -7.49965583      -7.85981744
C       -4.43347266      -8.05373707      -7.32230509
C       -3.78456702      -7.41351455      -6.26697719
C       -4.30418149      -6.21800675      -5.75220134
C       -3.60977576      -5.48846792      -4.67468205
O       -2.57066967      -5.97562950      -4.23351269
C       -6.13761330      -2.69381728      -4.24756944
C       -6.39428038      -1.61419390      -5.10727953
C       -7.13447038      -0.52036754      -4.65826062
C       -7.63762014      -0.50824681      -3.35858192
C       -7.41510829      -1.59539831      -2.51037868
C       -6.67738770      -2.69818200      -2.95488556
Br      -6.54518154      -4.18575116      -1.78247865
H       -1.55806546      -3.54500001      -0.55057714
H       -2.95068722      -4.96999544      -1.97837731
H       -3.54606859      -1.65194694      -4.68361185
H       -2.17677964      -0.23259424      -3.23470177
H       -7.01584006      -5.88247702      -7.75209109
H       -6.10341658      -7.99273729      -8.68396716
H       -4.03220537      -8.97979128      -7.72665153
H       -2.87301607      -7.83944574      -5.85346698
H       -6.03013239      -1.63353363      -6.13237217
H       -7.33460989       0.31348889      -5.32719160
H       -8.22693392       0.33781174      -3.01173758
H       -7.84493688      -1.58316985      -1.51109386
C       -1.79126086       1.79126086       1.79126086
C       -2.08749091       1.39462188       3.09143474
C       -2.91148523       2.19450936       3.88912208
C       -3.43037339       3.40541224       3.40470477
C       -3.12315694       3.78371955       2.08873388
C       -2.30807250       2.98042426       1.28418317
N       -4.31026751       4.20509617       4.21140445
C       -4.17258480       5.59740837       4.32134944
N       -5.07243263       6.37080238       4.84625432
C       -6.22840825       5.79876040       5.37645854
C       -7.21385981       6.64092155       5.89812218
C       -8.37555989       6.11204314       6.46578481
C       -8.55718325       4.73127908       6.52105249
C       -7.57931692       3.88264505       6.00309679
C       -6.41927387       4.42323820       5.43187751
C       -5.39376774       3.55375721       4.82540078
O       -5.58494957       2.33956852       4.85529377
C       -2.91824929       6.27037286       3.89037788
C       -3.02127525       7.22661934       2.86785922
C       -1.89723840       7.94893875       2.46692138
C       -0.67262439       7.73485536       3.09696911
C       -0.57227523       6.80989439       4.13871566
C       -1.69620447       6.08468214       4.54956864
Br      -1.49674000       4.95453524       6.06213612
H       -1.69566699       0.46411881       3.49385682
H       -3.13282550       1.86393547       4.90229900
H       -3.56008868       4.67480270       1.64673601
H       -2.10125203       3.28215758       0.26066605
H       -7.06980220       7.71818538       5.86242059
H       -9.13503684       6.77912763       6.86595656
H       -9.45997730       4.31625259       6.96241830
H       -7.72461643       2.80509042       6.03622195
H       -3.98194138       7.41929959       2.39479724
H       -1.98027090       8.69145087       1.67659083
H        0.20153522       8.30754636       2.79484862
H        0.38379815       6.68140493       4.64159382
C        1.79126086      -1.79126086       1.79126086
C        1.87595766      -3.15708473       1.54050514
C        2.66841161      -3.96456073       2.36214434
C        3.39833546      -3.41464784       3.42750709
C        3.29430759      -2.03561674       3.66568603
C        2.49372699      -1.22656473       2.85238821
N        4.17894688      -4.25216021       4.29566104
C        5.48154067      -3.91511095       4.69469099
N        6.12237832      -4.52040044       5.64671058
C        5.51500517      -5.59786539       6.29075664
C        6.19159119      -6.21538640       7.34592596
C        5.63532424      -7.31622538       8.00183822
C        4.39613472      -7.81244672       7.60093338
C        3.71326761      -7.20293710       6.54885405
C        4.27795802      -6.09644148       5.89999008
C        3.55481782      -5.39612455       4.82198336
O        2.44916747      -5.82849340       4.50215099
C        6.24343759      -2.85839544       3.97716699
C        6.65068113      -1.74146192       4.72361075
C        7.43226107      -0.74911004       4.13172742
C        7.82668578      -0.87668412       2.80107896
C        7.45375729      -2.00302651       2.06410148
C        6.67358352      -3.00482373       2.65204802
Br       6.33351768      -4.56102727       1.61886641
H        1.32509158      -3.60886603       0.71968500
H        2.71814526      -5.03099629       2.14991841
H        3.78267363      -1.57765608       4.52129767
H        2.41065009      -0.16464340       3.06878216
H        7.16197014      -5.83381598       7.65462205
H        6.17185304      -7.78558978       8.82267821
H        3.96040189      -8.66922847       8.10901783
H        2.74127794      -7.58281640       6.24183445
H        6.37134313      -1.65323904       5.77145603
H        7.74909145       0.11378040       4.71300155
H        8.44794739      -0.11045505       2.34245732
H        7.79994236      -2.10174474       1.03751349
C       -0.00445707       0.01189536      -1.78238275
H       -0.66409135       0.67374010      -2.43557963
H        0.65740317      -0.63156657      -2.45157240
C       -0.90989263      -0.90692880      -0.91072765
C        0.90977584       0.90977584      -0.90977584
C       -0.00465871       1.77757030       0.00794375
H       -0.66225468       2.44313916      -0.64384735
H        0.64322798       2.43503045       0.67728295
C       -1.78241447       0.00034974      -0.00472694
H       -2.45427497      -0.65498947       0.64260836
H       -2.43311707       0.67328779      -0.65473579
C       -0.91132561       0.90220522       0.91563759
C       -0.01476271      -0.02253852       1.78660255
H       -0.67934791      -0.69751639       2.42135241
H        0.63392994       0.61504881       2.47327442
C        0.01484550      -1.77751727      -0.01636693
H        0.67870853      -2.42144646      -0.68295456
H       -0.62264859      -2.45592969       0.64226336
C        1.78714474       0.01002794       0.00389507
H        2.44202412       0.67113390       0.66197326
H        2.45385902      -0.65136977      -0.64189061
C        0.91606151      -0.90478549       0.90901405
