182
Properties=species:S:1:pos:R:3 pbc="F F F"
C        1.79144239       1.79144239      -1.79144239
C        3.13175450       1.46815342      -1.97456057
C        3.93443858       2.27605649      -2.78375570
C        3.41013255       3.41786624      -3.42033492
C        2.05240398       3.72213670      -3.21719836
C        1.24781730       2.91334020      -2.40900284
C        4.34419660       4.26168953      -4.28167009
H        5.17582345       4.52253143      -3.61461657
N        3.79800708       5.53288686      -4.71337167
C        3.07250979       5.54813677      -5.89721526
C        2.28931936       6.66047678      -6.22618882
C        1.60958491       6.72197178      -7.44461058
C        1.74368948       5.68294438      -8.35902090
C        2.55330753       4.58900693      -8.06504592
C        3.21794323       4.51563840      -6.82706724
C        4.09482747       3.33132813      -6.48224277
H        4.79261327       3.24634520      -7.32807915
O        4.94237195       3.54464698      -5.35070637
C        3.41842733       1.96630957      -6.37962587
C        2.02814500       1.79903760      -6.27450433
C        1.46317909       0.52342844      -6.20130175
C        2.27764968      -0.60534145      -6.21931906
C        3.65981903      -0.46103540      -6.30452610
C        4.22487283       0.81335158      -6.38292305
H        3.56169541       0.58904346      -1.49988160
H        4.97830469       2.00450657      -2.93129329
H        1.59429035       4.58295206      -3.69623861
H        0.19920418       3.16701473      -2.27523055
H        3.41578590       6.09089458      -3.96011129
H        2.20219308       7.49162521      -5.53123851
H        0.99178397       7.58647651      -7.67088752
H        2.66607045       3.78323856      -8.78730607
H        1.36118347       2.65689504      -6.24176806
H        0.38436766       0.41329636      -6.12665967
H        1.83580647      -1.59601253      -6.16111010
H        4.29899357      -1.33982543      -6.30866517
H        5.30787413       0.90954502      -6.44278944
C        1.04613786       5.74044249      -9.61747856
C        0.46193837       5.78859716     -10.67143686
Br      -0.48266278       5.86645918     -12.37559829
C       -1.79144239      -1.79144239      -1.79144239
C       -1.21554922      -2.79277861      -2.56614066
C       -2.02587327      -3.59871148      -3.36966601
C       -3.42176697      -3.41536704      -3.41119971
C       -3.97755744      -2.39515945      -2.61902214
C       -3.16773701      -1.58919874      -1.81322459
C       -4.24625865      -4.32348952      -4.31780806
H       -3.79765483      -4.20309341      -5.31222321
N       -5.63157531      -3.93043958      -4.48225072
C       -6.54739659      -4.41344152      -3.55702371
C       -7.83089945      -3.85993879      -3.48514672
C       -8.78652655      -4.38006254      -2.60957819
C       -8.47179934      -5.48612364      -1.82773177
C       -7.21348151      -6.07515555      -1.91872331
C       -6.24268208      -5.53550630      -2.78246049
C       -4.86527117      -6.15326396      -2.88986325
H       -5.05293541      -7.21692181      -3.09718039
O       -4.11288039      -5.70489857      -4.01994634
C       -3.99084613      -6.13520352      -1.63831313
C       -4.25487382      -5.32369300      -0.52312011
C       -3.42880763      -5.36198002       0.60287836
C       -2.31886769      -6.20171900       0.62895941
C       -2.02878783      -7.00097505      -0.47354685
C       -2.85683486      -6.96707411      -1.59723849
H       -0.14103447      -2.96050094      -2.54908505
H       -1.56514228      -4.38871077      -3.96025150
H       -5.04978509      -2.22074526      -2.60295067
H       -3.62422696      -0.81274871      -1.20447379
H       -5.75286778      -2.96217929      -4.75174469
H       -8.09677404      -3.01425740      -4.11402537
H       -9.77038892      -3.92243060      -2.55632850
H       -6.97399482      -6.94782599      -1.31479428
H       -5.10319374      -4.64393282      -0.51272001
H       -3.65251919      -4.73116172       1.45935722
H       -1.67755206      -6.22868460       1.50533262
H       -1.15742273      -7.65011328      -0.46029730
H       -2.61283916      -7.59356710      -2.45380232
C       -9.45279872      -6.02784145      -0.92341874
C      -10.27438570      -6.48153011      -0.16605658
Br     -11.60282235      -7.21510630       1.05853397
C       -1.79144239       1.79144239       1.79144239
C       -2.81124400       1.21895545       2.54426904
C       -3.61417181       2.02872518       3.35135377
C       -3.41034721       3.42084098       3.41714552
C       -2.37321384       3.97350923       2.64501597
C       -1.56799604       3.16382584       1.83833845
C       -4.32965858       4.24739663       4.31050102
H       -5.34262838       4.00786004       3.96248304
N       -4.20930861       5.68301711       4.15193989
C       -3.25788395       6.33423576       4.92574211
C       -2.89445573       7.65280086       4.62872837
C       -1.99193311       8.34599838       5.43823578
C       -1.47789925       7.73241909       6.57533642
C       -1.86246641       6.43638451       6.90850946
C       -2.75228378       5.72927276       6.07909233
C       -3.17598410       4.31606491       6.41634937
H       -3.53983069       4.37463792       7.45256902
O       -4.30801339       3.85520288       5.67450904
C       -2.08852407       3.24437223       6.43146647
C       -0.81898766       3.42390983       5.85878944
C        0.14364393       2.41320839       5.91834482
C       -0.14961269       1.20246116       6.53955343
C       -1.40856322       0.99717921       7.09756730
C       -2.36943902       2.00872850       7.04297994
H       -2.98740880       0.14599804       2.51721362
H       -4.39967220       1.56716429       3.94726806
H       -2.16399336       5.03931631       2.67017135
H       -0.76790926       3.61595562       1.25758459
H       -4.27929142       5.99582990       3.19167044
H       -3.31387914       8.15204399       3.75913367
H       -1.70916511       9.36211717       5.17786573
H       -1.46814056       5.96318035       7.80529417
H       -0.55856140       4.34958250       5.35170267
H        1.12318692       2.57259218       5.47491842
H        0.60036386       0.41782629       6.58344162
H       -1.64399809       0.04949999       7.57433523
H       -3.35135980       1.83029707       7.47855172
C       -0.54746591       8.44185696       7.41473604
C        0.23177200       9.03601117       8.11773323
Br       1.49173381       9.99670827       9.25442022
C        1.79144239      -1.79144239       1.79144239
C        1.21125515      -2.60072877       2.76248457
C        2.02116792      -3.40756702       3.56551582
C        3.42107580      -3.41676694       3.41049097
C        3.98137555      -2.58826785       2.42209565
C        3.17164459      -1.78174958       1.61676617
C        4.24680282      -4.31342479       4.32732861
H        3.95916234      -4.01130220       5.34250691
N        5.67902161      -4.10007728       4.26516672
C        6.39119888      -4.81517503       3.31148792
C        7.71002192      -4.45879872       3.00716432
C        8.46370489      -5.20986264       2.10259974
C        7.91057182      -6.34834300       1.52673994
C        6.61482621      -6.74081021       1.85172396
C        5.84696739      -5.96988845       2.74379304
C        4.43296961      -6.37199340       3.10343537
H        4.51649873      -7.41810477       3.43243412
O        3.90570630      -5.68870548       4.24331353
C        3.40153506      -6.38513350       1.97769422
C        3.60466175      -5.76048976       0.73653542
C        2.63136399      -5.82042152      -0.26387622
C        1.43453604      -6.49421160      -0.03712035
C        1.20553557      -7.10473165       1.19304250
C        2.17992347      -7.04966748       2.19155650
H        0.13248411      -2.61795699       2.90017936
H        1.55428881      -4.04767474       4.31214100
H        5.05410102      -2.56818646       2.25119354
H        3.63017263      -1.15658226       0.85469458
H        5.95388504      -3.13257809       4.38032864
H        8.16207281      -3.58805267       3.47493133
H        9.47896751      -4.90368824       1.86649226
H        6.18888953      -7.63871038       1.40901517
H        4.51979463      -5.21192035       0.52813159
H        2.80886456      -5.33616586      -1.22070673
H        0.67894666      -6.53829785      -0.81634047
H        0.26819768      -7.62288389       1.37675174
H        1.98302907      -7.52683679       3.15034272
C        8.68254982      -7.12766865       0.59384043
C        9.32908140      -7.78035389      -0.18746290
Br      10.37446828      -8.83569071      -1.45076431
C       -0.00445707       0.01189536      -1.78238275
H       -0.66409135       0.67374010      -2.43557963
H        0.65740317      -0.63156657      -2.45157240
C       -0.90989263      -0.90692880      -0.91072765
C        0.90977584       0.90977584      -0.90977584
C       -0.00465871       1.77757030       0.00794375
H       -0.66225468       2.44313916      -0.64384735
H        0.64322798       2.43503045       0.67728295
C       -1.78241447       0.00034974      -0.00472694
H       -2.45427497      -0.65498947       0.64260836
H       -2.43311707       0.67328779      -0.65473579
C       -0.91132561       0.90220522       0.91563759
C       -0.01476271      -0.02253852       1.78660255
H       -0.67934791      -0.69751639       2.42135241
H        0.63392994       0.61504881       2.47327442
C        0.01484550      -1.77751727      -0.01636693
H        0.67870853      -2.42144646      -0.68295456
H       -0.62264859      -2.45592969       0.64226336
C        1.78714474       0.01002794       0.00389507
H        2.44202412       0.67113390       0.66197326
H        2.45385902      -0.65136977      -0.64189061
C        0.91606151      -0.90478549       0.90901405
