181
Properties=species:S:1:pos:R:3 pbc="F F F"
C        0.00000000       0.00000000       0.00000000
C        0.88163340       0.88163340      -0.88163340
C        0.94428441       0.64807637      -2.25190534
C        1.74312223       1.46294722      -3.05968068
C        2.51096858       2.49998488      -2.50536241
C        2.42238539       2.72399348      -1.11988391
C        1.60981799       1.92226354      -0.31248921
C        3.37732997       3.41090664      -3.36351965
H        3.66675181       4.26181676      -2.72704769
O        2.52874012       3.95299737      -4.38547409
C        3.05108005       4.86194377      -5.23985413
O        2.32474909       5.54288845      -5.95191072
C        4.53938761       4.93559891      -5.33755590
C        5.29103995       3.93840020      -4.81863577
O        6.64360796       3.76278117      -5.09945111
S        7.82065382       4.83645284      -4.72131994
O        8.06949626       5.68977031      -5.86307993
O        7.54436529       5.39454177      -3.41075302
C        9.25088154       3.78112113      -4.56627292
C        9.92791787       3.37598842      -5.72361198
C       11.02987004       2.52565329      -5.61359282
C       11.44816154       2.09526308      -4.35368117
Br      12.92040707       0.91844472      -4.20858246
C       10.78701349       2.52042781      -3.19941937
C        9.68501982       3.37234505      -3.30237875
C        4.66163745       2.80451692      -3.99996942
C        5.60615883       2.32210858      -2.87977846
C        4.39876927       1.63518253      -4.96721104
C        5.06834202       6.06953090      -6.16591233
H        0.36625075      -0.15340078      -2.70479171
H        1.74119587       1.28900032      -4.13354257
H        2.97103542       3.54117837      -0.65484874
H        1.54582230       2.12404747       0.75363885
H        9.60668595       3.71315091      -6.70748064
H       11.55327396       2.20350733      -6.51115619
H       11.12201466       2.19204441      -2.21828156
H        9.17548483       3.70320358      -2.39979142
H        5.87455175       3.13958638      -2.20133754
H        6.53505053       1.90459513      -3.28456131
H        5.14126762       1.53074675      -2.28056044
H        3.64592901       1.88842285      -5.72208764
H        4.06064415       0.73937497      -4.43700442
H        5.31266867       1.35217014      -5.50411561
H        5.68509547       6.72952527      -5.54774951
H        4.28007381       6.70235573      -6.58387240
H        5.65556535       5.69526605      -7.00954175
C       -0.88163340      -0.88163340      -0.88163340
C       -1.49184739      -0.34248036      -2.00993837
C       -2.28978477      -1.15339567      -2.82256970
C       -2.51177169      -2.50256186      -2.50198232
C       -1.87527952      -3.02771491      -1.36326836
C       -1.06179034      -2.22353457      -0.55924584
C       -3.36371800      -3.41098639      -3.37705186
H       -3.17498124      -4.44191711      -3.03871791
O       -2.83189034      -3.32834895      -4.70697230
C       -3.37452666      -4.11195275      -5.66639853
O       -2.80489710      -4.27757071      -6.73708046
C       -4.72525502      -4.68941149      -5.39787590
C       -5.46853041      -4.19970292      -4.37984259
O       -6.82765901      -4.45764061      -4.22054062
S       -7.47063859      -5.94186963      -3.96591839
O       -7.88595663      -6.50310704      -5.23328283
O       -6.60695264      -6.67963570      -3.06307175
C       -8.96846225      -5.55110657      -3.07870677
C      -10.09689878      -5.13435304      -3.79626645
C      -11.26390785      -4.79747182      -3.10773647
C      -11.29541684      -4.88632227      -1.71536668
Br     -12.86573777      -4.39922159      -0.78247489
C      -10.17718472      -5.32597343      -1.00370251
C       -9.00718658      -5.66607347      -1.68648358
C       -4.90061088      -3.16663725      -3.39887566
C       -5.46769236      -3.36262946      -1.97772405
C       -5.31427356      -1.77472573      -3.91216354
C       -5.20659165      -5.68381745      -6.41337614
H       -1.34291581       0.70096934      -2.27569521
H       -2.71991365      -0.72062344      -3.72320167
H       -1.98944668      -4.07777931      -1.09983654
H       -0.56818505      -2.65551236       0.30746648
H      -10.07687184      -5.06787986      -4.88256579
H      -12.13960698      -4.46653492      -3.66179558
H      -10.20828462      -5.40457981       0.08052379
H       -8.13987125      -6.01111379      -1.12749479
H       -5.25356692      -4.36679428      -1.59511447
H       -6.55383178      -3.21906860      -1.95130659
H       -5.03831874      -2.63955686      -1.27469920
H       -4.84628426      -1.53628915      -4.87386609
H       -5.05029497      -0.98596031      -3.20076827
H       -6.40001768      -1.71238491      -4.05655183
H       -5.36703582      -6.65686584      -5.93846860
H       -4.48777796      -5.85958038      -7.21894360
H       -6.13347004      -5.34302447      -6.88387864
C       -0.88163340       0.88163340       0.88163340
C       -1.99169145       1.51785407       0.33472060
C       -2.80452378       2.31582168       1.14540467
C       -2.50183952       2.51176030       2.50271605
C       -1.38156217       1.84932106       3.03537955
C       -0.57768408       1.03583665       2.23105001
C       -3.37779380       3.36319458       3.41076788
H       -3.05872489       3.15316945       4.44372192
O       -4.71434020       2.85374626       3.29912512
C       -5.67746335       3.39921346       4.07620114
O       -6.75933522       2.84403245       4.21618059
C       -5.39714620       4.73641541       4.67898081
C       -4.36010559       5.47105982       4.21691050
O       -4.18381464       6.82334101       4.49868460
S       -3.94267465       7.43911295       5.99663900
O       -5.21213101       7.86559901       6.54461647
O       -3.06508497       6.54995419       6.73462092
C       -3.02627261       8.92864772       5.64335525
C       -3.71957245      10.07458887       5.23335694
C       -3.00778732      11.23568602       4.92564280
C       -1.61667002      11.24385716       5.03657862
Br      -0.65195501      12.80664650       4.58883274
C       -0.92946686      10.10785549       5.46953833
C       -1.63560162       8.94362940       5.78051260
C       -3.37190658       4.90384781       3.19036941
C       -1.94539124       5.44534370       3.41731093
C       -3.85670465       5.34710463       1.79735355
C       -6.42060440       5.21821017       5.66497068
H       -2.24324444       1.38934361      -0.71494637
H       -3.69143670       2.76676089       0.70554117
H       -1.13297747       1.94300962       4.09107544
H        0.27434482       0.52198365       2.66859209
H       -4.80486879      10.07272437       5.14972433
H       -3.54290217      12.12504206       4.59999325
H        0.15373752      10.12063460       5.56544356
H       -1.09565053       8.06235850       6.12047080
H       -1.58202962       5.20965351       4.42379255
H       -1.89985948       6.53302895       3.29131854
H       -1.23780312       5.01621426       2.69855743
H       -4.82167626       4.89809207       1.53667117
H       -3.13714546       5.08421736       1.01566073
H       -3.98322342       6.43582691       1.74990410
H       -5.95866330       5.35602575       6.64768120
H       -7.23990204       4.50954448       5.81685542
H       -6.87123336       6.15756862       5.33157116
C        0.88163340      -0.88163340       0.88163340
C        2.22961140      -1.03974052       0.57491420
C        3.03832053      -1.83820644       1.38922317
C        2.50472093      -2.51125443       2.50034050
C        1.14248513      -2.32693090       2.79684676
C        0.33572459      -1.51405987       1.99478629
C        3.36558657      -3.37459460       3.41157509
H        2.76605819      -3.57647288       4.31308519
O        4.46478604      -2.55962995       3.84279559
C        5.34128360      -3.08001138       4.73158296
O        6.13306303      -2.36037003       5.32611520
C        5.35865523      -4.56492186       4.88896533
C        4.73889194      -5.33935492       3.96982904
O        4.93145635      -6.71414525       3.86023865
S        4.55243184      -7.80351127       5.02248349
O        5.72749381      -8.07177312       5.82307956
O        3.29559386      -7.41767989       5.63638633
C        4.25330615      -9.27938103       4.06558840
C        5.34390832     -10.04669486       3.63691509
C        5.12060868     -11.18649278       2.86201469
C        3.81539469     -11.55198287       2.52972823
Br       3.51649233     -13.07721644       1.45372549
C        2.72816289     -10.79955168       2.97914610
C        2.94452444      -9.65919801       3.75602117
C        3.89052910      -4.72718547       2.84840922
C        2.69157751      -5.62845873       2.48800963
C        4.79903515      -4.58972871       1.61239897
C        6.22237595      -5.07756723       6.00384207
H        2.66552798      -0.53639176      -0.28427807
H        4.09815211      -1.91074678       1.15483988
H        0.69707298      -2.79937484       3.67061472
H       -0.71098573      -1.37470928       2.25250737
H        6.36291098      -9.76661651       3.89779001
H        5.96603121     -11.78036718       2.52153910
H        1.71162872     -11.09301839       2.72769352
H        2.09383248      -9.07834863       4.10629872
H        2.04940581      -5.80875214       3.35731773
H        3.01716858      -6.60220171       2.10483669
H        2.07318220      -5.17400719       1.70538541
H        5.60926534      -3.87050649       1.77666767
H        4.23594160      -4.27168509       0.72939686
H        5.26523626      -5.54884811       1.35487005
H        5.61104218      -5.61758761       6.73374046
H        6.72168484      -4.28124045       6.56337665
H        7.00729400      -5.73475492       5.61832423
