177
Properties=species:S:1:pos:R:3 pbc="F F F"
C        0.00000000       0.00000000       0.00000000
C        2.74226426       3.90632622      -4.42080887
O        3.33079667       3.24093078      -3.30691899
C        2.49399520       2.48087407      -2.52182486
C        1.10244727       2.65446188      -2.50021166
C        0.29874958       1.85465603      -1.68498413
C        0.88159763       0.88159763      -0.88159763
C        2.26321497       0.71026858      -0.87415982
C        3.09151225       1.50876234      -1.68422843
C        4.54343204       1.28137885      -1.61225713
N        5.46386762       1.93409686      -2.39018512
H        5.21536378       2.61414625      -3.09431450
C        6.73462552       1.49839630      -2.09048932
C        7.89526094       1.98083435      -2.83553459
C        8.01856939       3.34373910      -3.14938625
C        9.09835143       3.80918045      -3.90532601
C       10.06698651       2.91224028      -4.34760332
C        9.96508610       1.55771876      -4.04087018
C        8.87877978       1.09396212      -3.29204895
C        6.52214454       0.57712678      -1.07280394
N        5.17005276       0.43946995      -0.81412029
C        7.50798186      -0.19138319      -0.32501442
C        8.76420860       0.32813735       0.01222560
C        9.67403524      -0.43454687       0.75163141
C        9.33104363      -1.71697785       1.17583726
C        8.07771384      -2.23847030       0.86492857
C        7.17182397      -1.47834500       0.12073045
H        2.15300685       3.21589877      -5.03351951
H        3.55584058       4.29135638      -5.04305900
H        2.14224268       4.76044836      -4.09260571
H        0.61174556       3.41515049      -3.09875399
H       -0.77815858       2.00238708      -1.68261215
H        2.71237742      -0.04841721      -0.23468478
H        7.27831141       4.06182235      -2.80206532
H        9.17215360       4.86792479      -4.14057402
H       10.71766275       0.85259928      -4.38308923
H        8.80405256       0.02996143      -3.07705052
H        9.04462991       1.33665669      -0.27874268
H       10.64600041      -0.02046695       1.00588675
H       10.03484766      -2.30499494       1.75915620
H        7.79797227      -3.23151093       1.20674375
H        6.19011106      -1.89103579      -0.10549654
C       11.17731644       3.38926064      -5.13068633
C       12.10721777       3.78876518      -5.78651836
Br      13.61078956       4.43473024      -6.84694328
C       -3.11324905      -4.67824136      -3.27790895
O       -3.26843852      -3.26364764      -3.34656027
C       -2.47490130      -2.50857529      -2.51321753
C       -1.86507638      -3.02941262      -1.36263180
C       -1.06808687      -2.21884001      -0.55146288
C       -0.88159763      -0.88159763      -0.88159763
C       -1.49708227      -0.34252765      -2.00803345
C       -2.30798741      -1.14052757      -2.83598804
C       -2.93839566      -0.49849581      -4.00017654
N       -3.69582819      -1.16331328      -4.92900813
H       -3.86647867      -2.15830079      -4.89904506
C       -4.13878246      -0.28919085      -5.89553783
C       -4.90389966      -0.75977948      -7.04795075
C       -5.93164793      -1.70123690      -6.87880992
C       -6.63636857      -2.19691535      -7.97957398
C       -6.32025913      -1.74768716      -9.25888381
C       -5.30833510      -0.80947356      -9.44586637
C       -4.59913040      -0.32232940      -8.34333106
C       -3.63124166       0.93324144      -5.47407503
N       -2.87600357       0.77775842      -4.32539784
C       -3.80403508       2.24521556      -6.08279357
C       -4.99490215       2.62780976      -6.71302796
C       -5.12848734       3.90586234      -7.26523196
C       -4.07990134       4.81969184      -7.17801903
C       -2.89746324       4.45959023      -6.53644195
C       -2.76248400       3.18044445      -5.99070898
H       -2.06181358      -4.97023899      -3.37037257
H       -3.65416424      -5.11128742      -4.12480430
H       -3.55880088      -5.07557890      -2.36091698
H       -2.00133214      -4.06301113      -1.06130677
H       -0.60199774      -2.64032547       0.33548257
H       -1.35299807       0.70861106      -2.25425798
H       -6.20159759      -2.05491578      -5.88568572
H       -7.42560405      -2.92861437      -7.82643399
H       -5.05676319      -0.45489731     -10.44169077
H       -3.79884304       0.39614723      -8.50836871
H       -5.83889699       1.94576846      -6.76690075
H       -6.05718932       4.19013874      -7.75259613
H       -4.18838525       5.81611326      -7.59842453
H       -2.08210730       5.17307708      -6.45068737
H       -1.83853719       2.91413261      -5.48016724
C       -7.04184344      -2.26101315     -10.39440683
C       -7.64617029      -2.69092366     -11.34540736
Br      -8.62331570      -3.38605260     -12.88309478
C       -4.58130083       2.86528787       3.62281066
O       -3.29163993       3.34003912       3.24696739
C       -2.51873810       2.50089645       2.47705957
C       -2.73715483       1.11751923       2.40244675
C       -1.92293239       0.31119391       1.60426346
C       -0.88159763       0.88159763       0.88159763
C       -0.63681342       2.24982674       0.96100321
C       -1.44209659       3.07936148       1.76304495
C       -1.11406319       4.51293641       1.81006841
N       -1.84842436       5.44825260       2.49147264
H       -2.69113385       5.22939585       3.00329483
C       -1.28912492       6.69648287       2.33790336
C       -1.92529600       7.88513830       2.90119559
C       -2.45369884       7.85634705       4.20164886
C       -3.10957755       8.97083897       4.73244138
C       -3.23550656      10.12590633       3.96541722
C       -2.71230370      10.17552544       2.67584589
C       -2.06462598       9.05569691       2.14446797
C       -0.16779054       6.44753726       1.55674746
N       -0.09452136       5.10718103       1.22194060
C        0.84363282       7.38910019       1.09614572
C        1.26792730       8.47330339       1.87474427
C        2.25876534       9.34154578       1.40507652
C        2.84729783       9.12502693       0.16049942
C        2.44939902       8.03926912      -0.61555513
C        1.45494361       7.17608921      -0.14839707
H       -5.14322500       2.50428915       2.75491099
H       -5.13280627       3.70920665       4.04824304
H       -4.50346307       2.09540350       4.39643019
H       -3.52777699       0.63227332       2.96559973
H       -2.10829970      -0.75885452       1.55739546
H        0.18703876       2.68711169       0.39857206
H       -2.35417718       6.96706908       4.82095282
H       -3.51502624       8.92556883       5.74005735
H       -2.80731397      11.07393697       2.07210031
H       -1.67808028       9.10444538       1.12853885
H        0.84816814       8.64641488       2.86178254
H        2.57841043      10.17977926       2.01827789
H        3.62445608       9.79435732      -0.19920473
H        2.91597320       7.85548345      -1.57979266
H        1.16085288       6.32319716      -0.75777246
C       -3.91525872      11.27318699       4.50881771
C       -4.48455115      12.23403454       4.96391562
Br      -5.40504887      13.78764376       5.69977045
C        3.89140520      -4.43105243       2.74694172
O        3.24114881      -3.30611986       3.33137777
C        2.48062924      -2.52170571       2.49435917
C        2.64199090      -2.51393531       1.10119460
C        1.84228661      -1.69874338       0.29735976
C        0.88159763      -0.88159763       0.88159763
C        0.72266269      -0.86042718       2.26455350
C        1.52131984      -1.67023157       3.09295160
C        1.30753164      -1.58341199       4.54612439
N        1.96152974      -2.35896492       5.46765494
H        2.63308982      -3.07129585       5.21943885
C        1.53983797      -2.04418246       6.73949071
C        2.02600102      -2.78321542       7.90241345
C        3.38712477      -3.10810108       8.01646889
C        3.85547553      -3.85859049       9.09879188
C        2.96333247      -4.28428062      10.07921701
C        1.61071921      -3.96639850       9.98655732
C        1.14393199      -3.22309974       8.89775913
C        0.62573796      -1.02024277       6.52609452
N        0.47832562      -0.77229776       5.17301962
C       -0.12731786      -0.25695259       7.51197837
C        0.40633841       0.08672851       8.76051045
C       -0.34164371       0.84091219       9.67041285
C       -1.62328320       1.27348524       9.33499697
C       -2.15865278       0.95617659       8.08914434
C       -1.41323663       0.19725855       7.18324371
H        3.19036675      -5.04276664       2.16929174
H        4.27815940      -5.04949783       3.56259873
H        4.74301140      -4.11578923       2.13649612
H        3.39295788      -3.12354600       0.60914616
H        1.98042806      -1.70720247      -0.78078989
H       -0.02631025      -0.21027184       2.71468340
H        4.10162171      -2.77374799       7.26682939
H        4.91271599      -4.10260496       9.16533147
H        0.90933990      -4.29565685      10.74835451
H        0.08124845      -2.99929456       8.83052150
H        1.41470723      -0.21072878       9.03459327
H        0.08331337       1.10004361      10.63637696
H       -2.19982729       1.86821734      10.03874114
H       -3.15108884       1.30434479       7.81515122
H       -1.83664395      -0.03394523       6.20727054
C        3.44329381      -5.06174447      11.19222514
C        3.84526143      -5.71287044      12.12436944
Br       4.49520908      -6.76568607      13.63156793
