190
Properties=species:S:1:pos:R:3 pbc="F F F"
C        3.65216829       4.81623025      -5.33071290
O        4.24070069       4.15083480      -4.21682301
C        3.40389922       3.39077809      -3.43172888
C        2.01235130       3.56436590      -3.41011568
C        1.20865361       2.76456006      -2.59488816
C        1.79150165       1.79150165      -1.79150165
C        3.17311900       1.62017260      -1.78406384
C        4.00141627       2.41866637      -2.59413245
C        5.45333606       2.19128287      -2.52216115
N        6.37377164       2.84400089      -3.30008914
H        6.12526780       3.52405027      -4.00421852
C        7.64452954       2.40830033      -3.00039335
C        8.80516496       2.89073837      -3.74543862
C        8.92847342       4.25364312      -4.05929027
C       10.00825546       4.71908448      -4.81523004
C       10.97689053       3.82214431      -5.25750734
Br      12.43406763       4.44817727      -6.28521145
C       10.87499013       2.46762278      -4.95077420
C        9.78868380       2.00386615      -4.20195298
C        7.43204857       1.48703080      -1.98270796
N        6.07995678       1.34937397      -1.72402431
C        8.41788588       0.71852083      -1.23491845
C        9.67411263       1.23804138      -0.89767842
C       10.58393926       0.47535715      -0.15827262
C       10.24094766      -0.80707382       0.26593324
C        8.98761786      -1.32856627      -0.04497545
C        8.08172800      -0.56844097      -0.78917358
H        3.06291088       4.12580280      -5.94342354
H        4.46574460       5.20126040      -5.95296303
H        3.05214670       5.67035239      -5.00250974
H        1.52164958       4.32505452      -4.00865802
H        0.13174544       2.91229110      -2.59251617
H        3.62228144       0.86148682      -1.14458880
H        8.18821544       4.97172637      -3.71196935
H       10.08205763       5.77782882      -5.05047804
H       11.62756677       1.76250330      -5.29299326
H        9.71395659       0.93986545      -3.98695454
H        9.95453393       2.24656071      -1.18864671
H       11.55590444       0.88943708       0.09598273
H       10.94475168      -1.39509092       0.84925218
H        8.70787629      -2.32160690       0.29683972
H        7.10001509      -0.98113176      -1.01540056
C       -3.64082791      -5.30265581      -4.85562771
O       -4.21432015      -4.15155524      -4.24248312
C       -3.39197273      -3.40222172      -3.43221175
C       -2.21387329      -3.90869873      -2.86426086
C       -1.41455763      -3.10431273      -2.04923147
C       -1.79150165      -1.79150165      -1.79150165
C       -2.96901399      -1.27909019      -2.32925125
C       -3.79122065      -2.07409008      -3.14890437
C       -5.02805296      -1.46997353      -3.66875360
N       -5.88830239      -2.09899570      -4.53056359
H       -5.73036231      -3.02718778      -4.89598650
C       -6.94614686      -1.27253346      -4.83454289
C       -7.96838902      -1.67518167      -5.79777127
C       -8.49138135      -2.97788625      -5.77213922
C       -9.43223355      -3.39010141      -6.72023501
C       -9.86112810      -2.49701341      -7.69840067
Br     -11.12811486      -3.05416996      -8.98517153
C       -9.35851248      -1.19887574      -7.73599888
C       -8.41059044      -0.79242936      -6.79148313
C       -6.68465727      -0.13359648      -4.08353357
N       -5.49033880      -0.26525780      -3.39775847
C       -7.48231591       1.07976357      -3.96877283
C       -8.88267669       1.06040337      -3.98755911
C       -9.61219397       2.24591030      -3.85128536
C       -8.95000480       3.45983888      -3.67777468
C       -7.55831454       3.49124611      -3.63695862
C       -6.83016156       2.30731137      -3.77961041
H       -2.70501713      -5.05796307      -5.36915701
H       -4.34857532      -5.66307597      -5.60831674
H       -3.49721385      -6.10364483      -4.12415014
H       -1.89539883      -4.93334638      -3.02661690
H       -0.50398344      -3.51346557      -1.61910371
H       -3.26155786      -0.25212709      -2.11467212
H       -8.17782066      -3.68625177      -5.00783873
H       -9.82102084      -4.40465018      -6.68469346
H       -9.68911723      -0.49709939      -8.49684671
H       -8.01385009       0.21925777      -6.84618426
H       -9.42399751       0.12394685      -4.08969070
H      -10.69834489       2.21766011      -3.86867400
H       -9.51796536       4.37924644      -3.56168967
H       -7.03631760       4.43242225      -3.48553432
H       -5.74300877       2.34195187      -3.73322700
C       -5.57385880       4.27938160       3.94587103
O       -4.16922583       4.25592596       4.18320672
C       -3.41623941       3.42497773       3.38518906
C       -3.96341869       2.34271269       2.68070150
C       -3.15367866       1.53079085       1.88363232
C       -1.79150165       1.79150165       1.79150165
C       -1.22782479       2.84830840       2.50122225
C       -2.02491955       3.67544750       3.31384805
C       -1.35739905       4.76299376       4.04638727
N       -2.01299508       5.68581194       4.81905465
H       -3.01642635       5.70502429       4.93208595
C       -1.11409751       6.57310576       5.36601994
C       -1.56412902       7.70691298       6.17029996
C       -2.57238580       7.53662119       7.13239983
C       -3.04674045       8.62378222       7.87204731
C       -2.50928491       9.89002164       7.65723563
Br      -3.15367119      11.36239279       8.65139237
C       -1.50420111      10.07740811       6.71177789
C       -1.03818727       8.98923313       5.96708253
C        0.11077247       6.10928493       4.90327487
N       -0.06358696       5.01550014       4.07426797
C        1.44210033       6.62918563       5.18423986
C        1.78837426       7.16865239       6.42955430
C        3.08505878       7.63639946       6.66622835
C        4.05275807       7.55396286       5.66673580
C        3.72777645       7.00139839       4.43040510
C        2.43044400       6.54024292       4.19266168
H       -5.79787645       4.44716028       2.88710048
H       -5.99025423       5.11892411       4.51078969
H       -6.04707688       3.36402331       4.31390863
H       -5.01839065       2.09563753       2.74133393
H       -3.59564018       0.69746548       1.34344705
H       -0.15797160       3.03986660       2.43051887
H       -2.99598427       6.55256989       7.32335699
H       -3.83100007       8.47034841       8.60901601
H       -1.08063979      11.06307659       6.53934695
H       -0.26579497       9.15591797       5.21906364
H        1.06189107       7.21558616       7.23604626
H        3.34082761       8.05382105       7.63636535
H        5.06288840       7.90831459       5.85498239
H        4.48214463       6.91924512       3.65232918
H        2.19101283       6.09839824       3.22689848
C        5.58922210      -4.03296588       4.17692346
O        4.18208303      -4.25609445       4.17018102
C        3.42227704      -3.41941649       3.38471266
C        3.87228075      -2.16403884       2.95051329
C        3.06031478      -1.35435073       2.15343632
C        1.79150165      -1.79150165       1.79150165
C        1.32028596      -3.02538638       2.23168310
C        2.12027507      -3.85442030       3.03951972
C        1.54984089      -5.13734365       3.47959554
N        2.23425739      -6.07339480       4.21020949
H        3.19862127      -5.96495229       4.48996304
C        1.43110390      -7.16313501       4.45898430
C        1.94689378      -8.34020049       5.15424769
C        2.75935756      -8.19234619       6.28970306
C        3.30026930      -9.30930707       6.93299360
C        3.02564924     -10.58451459       6.44637836
Br       3.76123067     -12.09565836       7.31056733
C        2.21678329     -10.75141952       5.32518430
C        1.68456059      -9.63138488       4.67855747
C        0.22568800      -6.81067552       3.86542382
N        0.32868943      -5.57713878       3.24752686
C       -1.02303165      -7.55994800       3.83440882
C       -1.44959367      -8.35010778       4.90931832
C       -2.66705523      -9.03589827       4.84872599
C       -3.47797603      -8.92518589       3.72073074
C       -3.07572088      -8.12692021       2.65282771
C       -1.85633910      -7.44727305       2.71152665
H        5.99096874      -3.98174424       3.15942423
H        6.05663940      -4.88712843       4.67620021
H        5.83917587      -3.13531391       4.75051905
H        4.84874977      -1.77963664       3.22697570
H        3.42659100      -0.38510408       1.82485763
H        0.32124969      -3.35614539       1.95096198
H        2.97503379      -7.20458835       6.69228902
H        3.93029298      -9.17190936       7.80816215
H        1.99871479     -11.74393122       4.94041732
H        1.06998988      -9.77805955       3.79272715
H       -0.85158024      -8.42830230       5.81301929
H       -2.98621924      -9.64664680       5.68893122
H       -4.42868028      -9.45031998       3.67876888
H       -3.71110439      -8.02337063       1.77716343
H       -1.55792784      -6.81586907       1.87634266
C       -0.00445707       0.01189536      -1.78238275
H       -0.66409135       0.67374010      -2.43557963
H        0.65740317      -0.63156657      -2.45157240
C       -0.90989263      -0.90692880      -0.91072765
C        0.90977584       0.90977584      -0.90977584
C       -0.00465871       1.77757030       0.00794375
H       -0.66225468       2.44313916      -0.64384735
H        0.64322798       2.43503045       0.67728295
C       -1.78241447       0.00034974      -0.00472694
H       -2.45427497      -0.65498947       0.64260836
H       -2.43311707       0.67328779      -0.65473579
C       -0.91132561       0.90220522       0.91563759
C       -0.01476271      -0.02253852       1.78660255
H       -0.67934791      -0.69751639       2.42135241
H        0.63392994       0.61504881       2.47327442
C        0.01484550      -1.77751727      -0.01636693
H        0.67870853      -2.42144646      -0.68295456
H       -0.62264859      -2.45592969       0.64226336
C        1.78714474       0.01002794       0.00389507
H        2.44202412       0.67113390       0.66197326
H        2.45385902      -0.65136977      -0.64189061
C        0.91606151      -0.90478549       0.90901405
