145
Properties=species:S:1:pos:R:3 pbc="F F F"
C        0.00000000       0.00000000       0.00000000
C        0.88218678       0.88218678      -0.88218678
C        1.55260528       0.32714822      -1.96664613
C        2.35788817       1.14107416      -2.77003512
C        2.50740196       2.51239105      -2.50633230
C        1.82214391       3.04358399      -1.40353502
C        1.01232962       2.23749639      -0.59490779
C        3.35686746       3.36347805      -3.35253598
C        3.60312080       4.81837480      -3.10051076
C        4.41583172       5.28589184      -4.31416962
H        3.75879178       5.85761837      -4.98297070
C        5.58873619       6.15143388      -3.88620259
C        5.46565185       7.54868605      -3.86178506
C        6.52900867       8.34833294      -3.43506316
C        7.72164128       7.75301172      -3.02672503
Br       9.15818181       8.83725247      -2.44500011
C        7.86249929       6.36791956      -3.04119615
C        6.79783351       5.57223964      -3.46751307
N        4.79630996       4.01207921      -4.97202078
N        4.01888704       2.87837348      -4.41736711
S        5.05628836       4.03960279      -6.65502122
O        5.53840515       5.35378451      -7.04141105
O        5.77786172       2.85054981      -7.06902589
C        3.39248203       3.89628057      -7.27857370
H        1.46667678      -0.72870509      -2.20192733
H        2.88448214       0.69697067      -3.61282785
H        1.91504240       4.09722721      -1.15821171
H        0.49699216       2.68100651       0.25041063
H        4.14069151       4.95170024      -2.15359154
H        2.66659797       5.38438460      -3.03980511
H        4.53906789       8.01675593      -4.18414737
H        6.41659701       9.42792484      -3.42960821
H        8.78714818       5.89179778      -2.73041638
H        6.89799614       4.48668871      -3.48549806
H        2.97721386       2.92576302      -7.00159460
H        3.43983573       3.97103765      -8.36805280
H        2.78615274       4.71358169      -6.88543951
C       -0.88218678      -0.88218678      -0.88218678
C       -0.68989460      -2.25927731      -0.89722773
C       -1.50171080      -3.06045020      -1.70683644
C       -2.51118354      -2.50504959      -2.50989218
C       -2.67943620      -1.11274176      -2.47708496
C       -1.87331492      -0.30286186      -1.66855702
C       -3.36060403      -3.35126853      -3.36100892
C       -4.41841960      -2.82396168      -4.27962508
C       -5.11241941      -4.07788731      -4.82558647
H       -6.08157418      -4.19508367      -4.32272301
C       -5.32365114      -3.97611935      -6.32660217
C       -6.53858006      -3.49784816      -6.83969474
C       -6.72588106      -3.36828411      -8.21823961
C       -5.69577185      -3.71389927      -9.09170690
Br      -5.94988431      -3.53325357     -10.95729650
C       -4.48171639      -4.18795661      -8.60194201
C       -4.29799517      -4.31545742      -7.22413362
N       -4.20519712      -5.17252606      -4.40268677
N       -3.22172001      -4.68776591      -3.40514172
S       -4.88932907      -6.71165376      -4.14992954
O       -6.03826770      -6.87185784      -5.02347518
O       -3.84914715      -7.72324525      -4.12504502
C       -5.52054404      -6.55673576      -2.49005650
H        0.08169193      -2.72713350      -0.29445747
H       -1.33979793      -4.13678423      -1.71769850
H       -3.44273643      -0.64001839      -3.08772650
H       -2.03036623       0.77053061      -1.66775242
H       -3.96268336      -2.21397185      -5.06932808
H       -5.14451164      -2.19929760      -3.74697843
H       -7.34585985      -3.23208446      -6.16202689
H       -7.67546444      -3.00260079      -8.59606483
H       -3.67320161      -4.46506538      -9.27109534
H       -3.35235322      -4.68817898      -6.82965071
H       -4.69282684      -6.41965924      -1.79208540
H       -6.04684796      -7.48375511      -2.24832312
H       -6.21993407      -5.72070201      -2.44453786
C       -0.88218678       0.88218678       0.88218678
C       -0.31274773       1.61825430       1.91539761
C       -1.12656317       2.42404088       2.71839339
C       -2.51232240       2.50771492       2.50608800
C       -3.05916155       1.75112886       1.45897250
C       -2.25261232       0.94341909       0.64870239
C       -3.36398921       3.35453714       3.35435512
C       -4.85166787       3.45134429       3.21899421
C       -5.25638252       4.55035888       4.20915179
H       -5.48282249       5.46741201       3.64914635
C       -6.47054225       4.13398430       5.02184610
C       -7.75913872       4.50623981       4.61074444
C       -8.88197685       4.09623177       5.33419616
C       -8.72125540       3.30761003       6.47251259
Br     -10.24296492       2.74981704       7.44765242
C       -7.45087241       2.92553170       6.89521090
C       -6.33150814       3.33647871       6.16959936
N       -4.02130540       4.75424959       5.00485497
N       -2.86225643       4.09236150       4.36000971
S       -3.76829982       6.29310490       5.68950765
O       -5.05395186       6.90528285       5.97436600
O       -2.75372573       6.21926353       6.72444817
C       -3.06408512       7.18629632       4.31695486
H        0.75316122       1.57816743       2.11489282
H       -0.67348427       2.99155197       3.52924442
H       -4.12690844       1.77973155       1.26384133
H       -2.70863352       0.37104607      -0.15209156
H       -5.31518913       2.48361766       3.44717650
H       -5.14948059       3.73747883       2.20382826
H       -7.88817881       5.12522555       3.72656683
H       -9.87026284       4.40006563       5.00380158
H       -7.31134254       2.31572468       7.78229512
H       -5.33177807       3.04540107       6.49300378
H       -2.09723144       6.75432531       4.05301473
H       -2.92192692       8.22252383       4.63447543
H       -3.75468131       7.15758968       3.47290295
C        0.88218678      -0.88218678       0.88218678
C        2.24459053      -0.62170736       0.98010175
C        3.04569676      -1.43321408       1.79008661
C        2.50500721      -2.51098674       2.51013137
C        1.12836329      -2.75196326       2.38893636
C        0.31812228      -1.94416541       1.58244611
C        3.35169578      -3.36258762       3.35859808
C        2.85379010      -4.55690586       4.11131040
C        4.05641522      -5.01272960       4.94674837
H        3.89953667      -4.70941970       5.99042448
C        4.23374657      -6.51975306       4.87287303
C        3.67212016      -7.34768352       5.85631928
C        3.80135345      -8.73651904       5.77453228
C        4.49132129      -9.30515742       4.70489931
Br       4.66099323     -11.18571142       4.59372973
C        5.05357946      -8.50059748       3.71743806
C        4.92190051      -7.11356626       3.80211944
N        5.17793301      -4.23030030       4.37217665
N        4.67191766      -3.14814035       3.49456963
S        6.49124859      -3.86604030       5.39362348
O        6.63067017      -4.91849070       6.38443985
O        7.63804517      -3.45358345       4.60580881
C        5.88990327      -2.42459933       6.25283370
H        2.70189989       0.19884558       0.43684473
H        4.11234923      -1.22635203       1.85557940
H        0.66941325      -3.57920976       2.92185831
H       -0.74278029      -2.15920438       1.51116395
H        2.50786271      -5.32714874       3.41097185
H        2.01763965      -4.30111697       4.77203106
H        3.13772781      -6.90778435       6.69445904
H        3.36540656      -9.35988540       6.54883809
H        5.59734407      -8.93010234       2.88191593
H        5.36049808      -6.47377095       3.03591388
H        5.75435207      -1.60396385       5.54625556
H        6.64284486      -2.14270164       6.99337969
H        4.95577707      -2.66856945       6.76082742
