189
Properties=species:S:1:pos:R:3 pbc="F F F"
C        0.00000000       0.00000000       0.00000000
C        0.88276743       0.88276743      -0.88276743
C        2.26733151       0.79481461      -0.77373794
C        3.06938074       1.59623220      -1.58173523
C        2.48766500       2.48092523      -2.49626035
C        1.09099992       2.57641963      -2.60917949
C        0.29028438       1.76523328      -1.78946421
N        0.49532732       3.48688083      -3.53871350
C       -0.84816839       3.77243890      -3.66823937
C       -1.04269682       4.72670878      -4.65197463
C       -2.37503479       5.30199314      -5.03692199
C       -2.39885185       6.83273791      -5.06676493
C       -2.23649676       7.43423191      -6.43390561
C       -2.92720820       8.54371281      -6.88903489
N       -2.59337041       8.80069036      -8.19911125
C       -1.66017181       7.85666542      -8.57190726
C       -1.36737174       7.03580348      -7.49456373
C       -0.33197879       5.94755766      -7.50267294
C        0.60701014       5.97595273      -6.29222602
C        0.24259930       5.01989090      -5.19237569
C        1.15083273       4.25739925      -4.47726560
C       -3.10837139       9.84682198      -9.01495215
C       -3.08460316       9.73259194     -10.41120793
C       -3.59866402      10.75862625     -11.20919476
C       -4.11280438      11.91354788     -10.61998168
C       -4.12316943      12.03141775      -9.23279943
Br      -4.78546921      13.61599874      -8.43605237
C       -3.63875547      11.00320700      -8.42307678
H        2.72809428       0.10994697      -0.06689274
H        4.15206360       1.53652379      -1.49999051
H        3.15892126       3.09082993      -3.09254998
H       -0.79268287       1.78981171      -1.84430580
H       -1.58886467       3.30321899      -3.03761915
H       -3.10818718       4.97236805      -4.28881127
H       -2.70330702       4.86871230      -5.98901557
H       -1.65046272       7.26315063      -4.38924994
H       -3.37783037       7.15253048      -4.68349643
H       -3.67775272       9.13396067      -6.37977182
H       -1.21620962       7.87226722      -9.55663637
H        0.28623949       6.08793618      -8.40100452
H       -0.81797176       4.97244863      -7.62045345
H        1.61151834       5.70349465      -6.64607365
H        0.69646129       6.98768492      -5.87532470
H        2.22305716       4.21352540      -4.59261559
H       -2.71342852       8.83711715     -10.90374129
H       -3.60024862      10.65472397     -12.29213750
H       -4.49930239      12.71108604     -11.24820139
H       -3.63711390      11.13744520      -7.34553078
C       -0.88276743      -0.88276743      -0.88276743
C       -0.61267004      -0.97864811      -2.24456591
C       -1.41492473      -1.78661995      -3.04580348
C       -2.48223515      -2.49693278      -2.48568265
C       -2.76175749      -2.40227601      -1.11256554
C       -1.94811201      -1.58416195      -0.31270792
N       -3.85817635      -3.12226459      -0.54048071
C       -4.32032853      -3.02818242       0.75600107
C       -5.41850918      -3.85183101       0.93435360
C       -6.19952632      -3.97506445       2.21071043
C       -7.71098286      -3.81478198       2.02511386
C       -8.47227962      -5.10775085       1.94838972
C       -9.70996188      -5.32407148       2.52849386
N      -10.10387109      -6.62670871       2.32414860
C       -9.11429324      -7.23761775       1.58351011
C       -8.12226202      -6.31938531       1.27865185
C       -6.92784766      -6.60362966       0.41322551
C       -6.67332857      -5.54098454      -0.66087578
C       -5.62528450      -4.52579407      -0.30378733
C       -4.66603434      -4.04194964      -1.17751361
C      -11.30801502      -7.22965394       2.78426622
C      -11.38681138      -8.61909513       2.94670981
C      -12.56860919      -9.20707001       3.40652221
C      -13.68439062      -8.41601048       3.67967591
C      -13.60880060      -7.03690557       3.50465842
Br     -15.13605381      -5.96900838       3.83848028
C      -12.42684183      -6.43354338       3.07285691
H        0.21468268      -0.43132071      -2.68829596
H       -1.21311732      -1.86394410      -4.11151648
H       -3.08278161      -3.10197897      -3.15754059
H       -2.11169126      -1.48463357       0.75489018
H       -3.86172926      -2.36262783       1.47238363
H       -5.86088175      -3.17809862       2.88598822
H       -5.94590774      -4.91791306       2.70939995
H       -7.94879292      -3.20049615       1.14735122
H       -8.09118367      -3.26319527       2.89618241
H      -10.31066138      -4.64747289       3.12215450
H       -9.21238188      -8.26517919       1.26486710
H       -7.11535675      -7.55529946      -0.10452397
H       -6.04502288      -6.77055309       1.04064564
H       -6.33245396      -6.06144185      -1.56719083
H       -7.59885782      -5.02054488      -0.94006821
H       -4.50844042      -4.30959802      -2.21115971
H      -10.52998393      -9.26370196       2.76625599
H      -12.61711892     -10.28380916       3.55431523
H      -14.60251517      -8.88266818       4.02519832
H      -12.40888891      -5.35842393       2.92145076
C       -0.88276743       0.88276743       0.88276743
C       -2.20785500       1.10670023       0.52132884
C       -3.01125803       1.90711867       1.32897147
C       -2.49062327       2.47969930       2.49452801
C       -1.15340473       2.25982399       2.86337032
C       -0.35051216       1.45229618       2.04217354
N       -0.61804623       2.85170666       4.05116876
C        0.69719588       2.82306280       4.46664295
C        0.84259702       3.53177295       5.64681066
C        2.14344589       3.74043758       6.36688865
C        2.42333437       5.20382330       6.72016205
C        2.08427485       5.58173463       8.13418097
C        2.84465283       6.42687223       8.92332011
N        2.29323005       6.51886106      10.18080019
C        1.15456196       5.74139469      10.18156814
C        0.95709958       5.19777206       8.92232299
C       -0.22839520       4.36557900       8.52427762
C       -0.87398955       4.79761794       7.20358140
C       -0.45735297       3.99013850       6.00737441
C       -1.31302924       3.56925472       5.00321362
C        2.79806284       7.27777824      11.27368734
C        2.46324496       6.93271125      12.58973042
C        2.96745471       7.67554944      13.66106226
C        3.78430395       8.78096573      13.42406340
C        4.10494625       9.13078213      12.11521186
Br       5.18173972      10.65445983      11.79386180
C        3.63135734       8.38166046      11.03722518
H       -2.62117647       0.66544162      -0.38168410
H       -4.04660841       2.09035131       1.05161818
H       -3.15673509       3.10478863       3.08077745
H        0.68470342       1.23981365       2.28632441
H        1.46152846       2.32476370       3.88873823
H        2.94911567       3.39829480       5.70381301
H        2.18562606       3.09092637       7.24912055
H        1.91877307       5.89130889       6.02940202
H        3.50092691       5.37261726       6.58650618
H        3.77523412       6.92549362       8.68572027
H        0.52373787       5.68003075      11.05640109
H       -0.98741720       4.47566107       9.31210192
H        0.04709902       3.30494227       8.51708708
H       -1.96185893       4.68479176       7.31443595
H       -0.69885425       5.86192837       6.99868829
H       -2.37685000       3.73165022       4.92069792
H        1.84886606       6.06373490      12.81256107
H        2.72440742       7.38899031      14.68202996
H        4.16197103       9.35974796      14.26220811
H        3.87843624       8.69650508      10.02779324
C        0.88276743      -0.88276743       0.88276743
C        0.53051670      -1.09276487       2.21260250
C        1.33324464      -1.90063749       3.01346604
C        2.48305008      -2.49710804       2.48469246
C        2.84551810      -2.28690072       1.14418022
C        2.03064178      -1.46978656       0.34455353
N        4.02577405      -2.89022319       0.60492441
C        4.56497149      -2.67392646      -0.64638807
C        5.72824987      -3.40825290      -0.80051618
C        6.59889870      -3.38854451      -2.02356287
C        8.07953533      -3.14204178      -1.72092612
C        8.92393648      -4.38390079      -1.67619652
C       10.20956474      -4.47600601      -2.18003124
N       10.68054454      -5.76089142      -2.03500477
C        9.68993477      -6.48706229      -1.40859618
C        8.61720713      -5.66054579      -1.11475745
C        7.39127063      -6.08402743      -0.35704624
C        6.99134569      -5.11951898       0.76432422
C        5.89984932      -4.15322340       0.40179317
C        4.85288984      -3.79725303       1.23535472
C       11.95228840      -6.24853400      -2.44741966
C       12.14011117      -7.61465541      -2.69556987
C       13.38853156      -8.08890077      -3.10827534
C       14.46098298      -7.20825449      -3.24851229
C       14.27625199      -5.85310066      -2.98830490
Br      15.74259811      -4.66535316      -3.14136936
C       13.02843514      -5.36156292      -2.60246975
H       -0.36118263      -0.63434675       2.63176988
H        1.06726323      -2.06662224       4.05469244
H        3.07919069      -3.10719530       3.15591519
H        2.25712437      -1.28410179      -0.69979151
H        4.10876210      -1.99105025      -1.34783888
H        6.25002461      -2.56984760      -2.66688007
H        6.44645504      -4.30834101      -2.60037518
H        8.21445111      -2.57721268      -0.78972594
H        8.47650198      -2.50603271      -2.52433817
H       10.79873172      -3.72065795      -2.68340990
H        9.83939114      -7.52588772      -1.15258488
H        7.61114403      -7.05552901       0.10850714
H        6.56604251      -6.26412037      -1.05523255
H        6.62897400      -5.72444202       1.60767062
H        7.85705520      -4.56003060       1.14238511
H        4.64654869      -4.14745641       2.23519305
H       11.32113587      -8.32580153      -2.61950749
H       13.52304168      -9.14684494      -3.32327378
H       15.43079099      -7.58734105      -3.55814700
H       12.92421297      -4.30346251      -2.38181340
