149
Properties=species:S:1:pos:R:3 pbc="F F F"
C        0.00000000       0.00000000       0.00000000
O        5.08382313       2.81821207      -7.44556009
C        4.85586487       2.88611531      -6.23609765
N        3.66772899       2.44545555      -5.71379064
N        3.32697042       2.57584406      -4.33373177
C        2.36577777       1.69813250      -4.00595927
H        1.94586031       0.95116399      -4.67392629
C        1.93072106       1.64038826      -2.65321862
C        2.22169500       2.47491329      -1.57850861
C        1.54481512       1.98205596      -0.44060318
C        0.86790532       0.86790532      -0.86790532
O        1.08530509       0.65455365      -2.18807112
C        5.88821831       3.41987079      -5.26997720
C        6.46469003       2.29486074      -4.42009747
C        7.40391561       2.82865764      -3.36989390
O        8.60323973       2.56009687      -3.38259881
N        6.78068602       3.62365331      -2.41747128
N        7.53248642       4.15942630      -1.41191618
C        6.93770071       4.98090895      -0.61104988
C        7.67936374       5.56462245       0.47305077
C        8.97668955       5.36604071       0.90815838
C        9.16887212       6.21929647       2.02042424
C        7.98037708       6.89060696       2.19392974
O        7.06787994       6.49684186       1.26388293
H        2.99798986       2.02420841      -6.34552257
H        2.85883470       3.34454067      -1.64488478
H        1.55363375       2.39250218       0.55703675
H        5.43561336       4.21702988      -4.66956344
H        6.68910860       3.89866550      -5.84645248
H        7.01365116       1.58986416      -5.05561549
H        5.70064204       1.70275596      -3.90706812
H        5.77296592       3.76624519      -2.46132758
H        5.87782908       5.26606949      -0.72728214
H        9.68644784       4.68047093       0.46228915
H       10.06502195       6.32889337       2.61485143
C        7.73036502       7.87507208       3.21467574
C        7.52097992       8.69956161       4.06955052
Br       7.18242192      10.03269146       5.45181073
O       -3.14956968      -7.66557566      -4.53244995
C       -3.08905626      -6.43706687      -4.45195470
N       -2.72186798      -5.82137952      -3.28372769
N       -2.71400650      -4.40345459      -3.11908517
C       -1.91522090      -4.05720878      -2.09743987
H       -1.31057486      -4.74618812      -1.51418761
C       -1.73596122      -2.67537198      -1.81299474
C       -2.38990717      -1.55937498      -2.32583476
C       -1.83608257      -0.40747237      -1.72391932
C       -0.86790532      -0.86790532      -0.86790532
O       -0.80025075      -2.22049520      -0.90718390
C       -3.37718059      -5.55560027      -5.64528544
C       -2.09622065      -4.91699786      -6.16642973
C       -2.38418995      -3.94087275      -7.27740445
O       -1.98664402      -4.13521687      -8.42407452
N       -3.11713623      -2.83418916      -6.87048522
N       -3.43371349      -1.87813940      -7.79197601
C       -4.20874853      -0.92146006      -7.39945094
C       -4.56377705       0.11866206      -8.32582043
C       -4.16756828       0.36113515      -9.62813875
C       -4.84630017       1.52874455     -10.05018872
C       -5.61924549       1.92535805      -8.98316685
O       -5.45109681       1.07997866      -7.92972072
H       -2.46168040      -6.40652618      -2.49951426
H       -3.18398815      -1.60789954      -3.05637246
H       -2.11343356       0.62071231      -1.89637793
H       -4.13765924      -4.81720186      -5.36734559
H       -3.83222159      -6.17141487      -6.43059012
H       -1.42021653      -5.69185202      -6.54706225
H       -1.53339545      -4.38108002      -5.39599065
H       -3.37619999      -2.73395257      -5.89038613
H       -4.62333177      -0.86997747      -6.37787146
H       -3.46869398      -0.24496184     -10.19097379
H       -4.77865786       2.01354325     -11.01394929
C       -6.48845057       3.07341167      -8.97572245
C       -7.21640982       4.03490658      -8.96948777
Br      -8.39345837       5.58956252      -8.95940681
O       -2.94155108       7.54768798       4.85835623
C       -2.95973363       6.32649136       4.69185285
N       -2.55054578       5.76704979       3.50937961
N       -2.62790996       4.36705787       3.24157842
C       -1.78163264       4.03380705       2.25442985
H       -1.08977170       4.71473835       1.76644054
C       -1.67716099       2.66530652       1.88186044
C       -2.44218972       1.56799703       2.26493015
C       -1.92587067       0.42243723       1.61916636
C       -0.86790532       0.86790532       0.86790532
O       -0.71065128       2.20593188       1.01134670
C       -3.39487242       5.38884174       5.79435215
C       -2.20268126       4.62327895       6.35368804
C       -2.63809134       3.59709362       7.36728219
O       -2.31376553       3.68243504       8.54973484
N       -3.41327063       2.57800507       6.83053490
N       -3.86179564       1.58690794       7.65512532
C       -4.66961481       0.71917566       7.14086905
C       -5.16252577      -0.35306630       7.96147595
C       -4.88098775      -0.71290521       9.26648933
C       -5.66752551      -1.85350558       9.55372442
C       -6.38509679      -2.11787842       8.40983593
O       -6.08211331      -1.21688877       7.43561433
H       -2.19370247       6.38386513       2.79015324
H       -3.28275969       1.62467513       2.94082534
H       -2.28509818      -0.59190764       1.69590863
H       -4.18167454       4.72934209       5.41119006
H       -3.86322669       5.98116991       6.58982998
H       -1.50499271       5.31822812       6.83590997
H       -1.62270298       4.10147450       5.58628865
H       -3.60563959       2.56464989       5.83024922
H       -5.01030774       0.76863922       6.09223373
H       -4.18556131      -0.20004702       9.91911532
H       -5.70455564      -2.40697622      10.48148447
C       -7.32813246      -3.19550023       8.25812913
C       -8.11792483      -4.09800849       8.13107468
Br      -9.39495230      -5.55728803       7.92563839
O        3.96952174      -3.59899369       7.77907986
C        4.02902940      -3.38186310       6.56718534
N        2.90377866      -3.07663549       5.84656102
N        2.91035075      -2.89556140       4.43063410
C        1.83827861      -2.18503312       4.04655782
H        1.09997688      -1.75393822       4.71703549
C        1.69938221      -1.85463732       2.67030842
C        2.42621274      -2.28450349       1.56440068
C        1.89661321      -1.65500955       0.41585150
C        0.86790532      -0.86790532       0.86790532
O        0.73557699      -0.98081032       2.21154255
C        5.34723867      -3.40251645       5.82831118
C        5.76173677      -1.99350409       5.42440739
C        7.01025173      -2.01096687       4.58124855
O        8.06057962      -1.50933706       4.97601874
N        6.84218942      -2.62978090       3.34984028
N        7.90585101      -2.70077009       2.49720780
C        7.73973648      -3.37967591       1.41024714
C        8.82348423      -3.47645112       0.47100006
C       10.07930170      -2.89805677       0.45721342
C       10.72639131      -3.35612919      -0.71477615
C        9.82968660      -4.18988342      -1.34251572
O        8.66969481      -4.26557911      -0.63443505
H        2.02715232      -2.99419313       6.34637539
H        3.24695802      -2.98468580       1.61661633
H        2.22692776      -1.76717297      -0.60500156
H        5.26572827      -4.08312039       4.97335803
H        6.10785055      -3.83995073       6.48642530
H        5.95138048      -1.38865901       6.31909132
H        4.99151679      -1.45916901       4.85978033
H        5.92556907      -2.98811336       3.08685626
H        6.79766410      -3.90255097       1.17096563
H       10.46519881      -2.22595781       1.21347298
H       11.72296318      -3.10835869      -1.05225798
C       10.07798332      -4.88929839      -2.57652036
C       10.28593181      -5.47505844      -3.60999923
Br      10.62216694      -6.42218289      -5.28104717
