190
Properties=species:S:1:pos:R:3 pbc="F F F"
C        1.79198673       1.79198673      -1.79198673
C        3.08078442       2.11064836      -1.37744770
C        3.88431887       2.91979304      -2.18205858
C        3.41092215       3.42717492      -3.40918162
C        2.10937182       3.08361237      -3.80967602
C        1.30402384       2.27248679      -3.00548232
C        4.27250994       4.31801056      -4.30894577
H        3.72098336       4.67349366      -5.18800742
N        5.46839957       3.60914496      -4.71328338
C        5.46384038       2.71182276      -5.78912153
C        6.45611381       1.74533628      -5.93014356
C        6.45823105       0.92044291      -7.05672503
C        5.49244755       1.10930274      -8.03132466
Br       5.48974764       0.07237162      -9.60444602
C        4.53326259       2.08371732      -7.82098158
N        4.48297803       2.86237843      -6.71007683
C        6.59152840       4.08911171      -4.07012397
O        7.75634411       3.73309355      -4.10426609
C        6.17407215       5.32122417      -3.35545457
C        4.86679047       5.49579650      -3.57836435
C        3.97296753       6.61848345      -3.22826343
O        2.76076898       6.43099068      -3.15973365
C        4.48591511       7.99559896      -3.02526064
C        3.78632726       8.82871578      -2.14089290
C        4.17998603      10.15557266      -1.95935629
C        5.27030367      10.66012376      -2.66564190
C        5.95704685       9.84490297      -3.56492681
C        5.55838776       8.51933808      -3.75657285
O        7.05876228       6.11601778      -2.68983280
H        3.46819224       1.73965900      -0.43203373
H        4.88556301       3.15117357      -1.83092511
H        1.71018510       3.45568297      -4.75360510
H        0.29960638       2.02834066      -3.33151678
H        7.21720579       1.60082906      -5.16726965
H        7.21793985       0.15334882      -7.16142482
H        3.75738635       2.28811504      -8.55677517
H        2.92248255       8.44824547      -1.59896593
H        3.63037226      10.79522441      -1.27386408
H        5.57728108      11.69358450      -2.52470411
H        6.79798701      10.24513591      -4.12517327
H        6.08951066       7.91885305      -4.48920348
H        7.93156144       5.67731359      -2.78394190
C       -1.79198673      -1.79198673      -1.79198673
C       -1.21848053      -2.52462323      -2.82577672
C       -2.02570534      -3.32696086      -3.63350429
C       -3.41769259      -3.40501105      -3.42457506
C       -3.97129337      -2.66273600      -2.36863083
C       -3.16397072      -1.85975870      -1.55826354
C       -4.32479423      -4.27673876      -4.29793329
H       -5.38375177      -4.16374535      -4.03498732
N       -3.92396450      -5.66465234      -4.20221106
C       -4.34208858      -6.48011843      -3.14257765
C       -3.66231071      -7.65112078      -2.81816216
C       -4.15573887      -8.47505569      -1.80460443
C       -5.33632463      -8.12749607      -1.16925425
Br      -6.08488783      -9.23784083       0.15616339
C       -5.95390620      -6.94586791      -1.53818738
N       -5.46479689      -6.10527833      -2.48535806
C       -3.29845768      -6.09864906      -5.35365734
O       -2.78603636      -7.16596590      -5.64170149
C       -3.47089158      -5.02060848      -6.35925082
C       -4.14359394      -4.02385200      -5.77350539
C       -4.70273766      -2.77872646      -6.33825028
O       -4.92871944      -1.82428043      -5.59849344
C       -5.07267516      -2.66381761      -7.77028195
C       -4.99491468      -1.39640543      -8.36461583
C       -5.39385298      -1.21161664      -9.68944536
C       -5.87968424      -2.29026467     -10.42612043
C       -5.98246175      -3.54927128      -9.83514360
C       -5.59387941      -3.73471007      -8.50570922
O       -3.05948853      -5.15337757      -7.65174676
H       -0.14903651      -2.47662713      -3.01422132
H       -1.54855155      -3.88651761      -4.43259253
H       -5.04373264      -2.70014637      -2.17559416
H       -3.61543561      -1.28897249      -0.75505572
H       -2.73828575      -7.92627559      -3.32074316
H       -3.61900078      -9.37836422      -1.53534849
H       -6.89078557      -6.62660740      -1.08488358
H       -4.63393804      -0.54471271      -7.79104319
H       -5.33278035      -0.22518404     -10.14149635
H       -6.19066469      -2.14686101     -11.45804399
H       -6.37525636      -4.38557452     -10.40746531
H       -5.71841504      -4.71779765      -8.06135450
H       -2.64433921      -6.04086040      -7.70761732
C       -1.79198673       1.79198673       1.79198673
C       -1.20814636       2.59353812       2.76719600
C       -2.01513273       3.39590733       3.57513043
C       -3.41683670       3.40534072       3.42510127
C       -3.98132327       2.59403148       2.42730546
C       -3.17432308       1.79091073       1.61675915
C       -4.32380207       4.27563669       4.30002752
H       -5.38691837       4.10614988       4.08941619
N       -3.98944371       5.67371674       4.12766746
C       -4.48805214       6.42279803       3.05393450
C       -3.87536400       7.60608148       2.65014818
C       -4.44755095       8.36245990       1.62538814
C       -5.63748261       7.93713895       1.05845339
Br      -6.49030326       8.95468559      -0.27842358
C       -6.18572724       6.74787169       1.50436257
N       -5.61993416       5.97173796       2.46376117
C       -3.33543439       6.18463015       5.23069955
O       -2.85913820       7.28450969       5.45005586
C       -3.41690243       5.14595950       6.28788895
C       -4.06896902       4.09646929       5.77551301
C       -4.54773994       2.85500645       6.41696801
O       -4.76235923       1.85990173       5.72923235
C       -4.85098141       2.78818674       7.86760657
C       -4.69180523       1.55287587       8.51125485
C       -5.02544740       1.41031401       9.85915357
C       -5.52694165       2.49898130      10.57014639
C       -5.71057145       3.72498784       9.93131734
C       -5.38749032       3.86755359       8.57925479
O       -2.95721540       5.35337574       7.55402173
H       -0.13058118       2.59947704       2.90982674
H       -1.52975524       4.01018537       4.32772109
H       -5.06160314       2.57719554       2.28067449
H       -3.63373671       1.16633386       0.85939326
H       -2.94393749       7.94232841       3.09903860
H       -3.96339714       9.27492359       1.29439277
H       -7.12592957       6.36924452       1.10710246
H       -4.31807392       0.69266944       7.95895058
H       -4.90145701       0.44842214      10.34958160
H       -5.78708535       2.38845729      11.62002704
H       -6.11543020       4.56842540      10.48444059
H       -5.57434781       4.82375003       8.09946935
H       -2.57989246       6.25931364       7.55361083
C        1.79198673      -1.79198673       1.79198673
C        2.82995295      -2.51946687       1.21946066
C        3.63261225      -3.32806226       2.02549599
C        3.40709889      -3.42658871       3.41359109
C        2.35855044      -2.67518218       3.96892759
C        1.55470353      -1.86415421       3.16313522
C        4.27275617      -4.30782472       4.31888538
H        3.91282109      -4.31458289       5.35508046
N        5.65282925      -3.87358720       4.26441146
C        6.11932132      -2.80475997       5.04070338
C        7.29112455      -2.12839460       4.71207450
C        7.76237295      -1.11905281       5.55397322
C        7.07208951      -0.83931880       6.72166664
Br       7.70102629       0.46336015       7.92889914
C        5.91143339      -1.54626065       6.98026746
N        5.40854061      -2.49605129       6.15084138
C        6.44080500      -4.75635769       3.55360139
O        7.62049822      -4.72276348       3.25044205
C        5.60335077      -5.95391143       3.29348868
C        4.39515526      -5.72568843       3.82010763
C        3.22833970      -6.61850491       3.97286979
O        2.10733301      -6.13478462       4.10937569
C        3.37275532      -8.09340394       4.04061546
C        2.30714576      -8.87550889       3.57328128
C        2.35530366     -10.26701502       3.67259630
C        3.46499205     -10.88510687       4.24597042
C        4.51875704     -10.11336565       4.73475394
C        4.46830241      -8.71965971       4.64633657
O        6.09569324      -7.07462277       2.69429685
H        3.02094365      -2.46832713       0.15061418
H        4.43462743      -3.88400514       1.54902913
H        2.15584935      -2.72452511       5.03909871
H        0.74568734      -1.30053955       3.61323694
H        7.83558156      -2.35184548       3.79787746
H        8.66427889      -0.57633838       5.29209623
H        5.33348623      -1.38089616       7.88789416
H        1.42864554      -8.40030751       3.14074089
H        1.52367137     -10.86553455       3.31025483
H        3.50296610     -11.96892368       4.32367991
H        5.37645425     -10.59731834       5.19452360
H        5.28691371      -8.14337458       5.06727890
H        7.03337028      -6.87334711       2.48609953
C       -0.00445707       0.01189536      -1.78238275
H       -0.66409135       0.67374010      -2.43557963
H        0.65740317      -0.63156657      -2.45157240
C       -0.90989263      -0.90692880      -0.91072765
C        0.90977584       0.90977584      -0.90977584
C       -0.00465871       1.77757030       0.00794375
H       -0.66225468       2.44313916      -0.64384735
H        0.64322798       2.43503045       0.67728295
C       -1.78241447       0.00034974      -0.00472694
H       -2.45427497      -0.65498947       0.64260836
H       -2.43311707       0.67328779      -0.65473579
C       -0.91132561       0.90220522       0.91563759
C       -0.01476271      -0.02253852       1.78660255
H       -0.67934791      -0.69751639       2.42135241
H        0.63392994       0.61504881       2.47327442
C        0.01484550      -1.77751727      -0.01636693
H        0.67870853      -2.42144646      -0.68295456
H       -0.62264859      -2.45592969       0.64226336
C        1.78714474       0.01002794       0.00389507
H        2.44202412       0.67113390       0.66197326
H        2.45385902      -0.65136977      -0.64189061
C        0.91606151      -0.90478549       0.90901405
