169
Properties=species:S:1:pos:R:3 pbc="F F F"
C        0.00000000       0.00000000       0.00000000
C        0.88208270       0.88208270      -0.88208270
C        2.17088040       1.20074434      -0.46754367
C        2.97441484       2.00988902      -1.27215456
C        2.50101813       2.51727089      -2.49927760
C        1.19946779       2.17370834      -2.89977199
C        0.39411982       1.36258277      -2.09557830
C        3.36260592       3.40810654      -3.39904175
H        2.81107934       3.76358963      -4.27810340
N        4.55849554       2.69924093      -3.80337936
C        4.55393636       1.80191873      -4.87921750
C        5.54620978       0.83543226      -5.02023954
C        5.54832703       0.01053888      -6.14682100
C        4.58254353       0.19939871      -7.12142063
Br       4.57984361      -0.83753241      -8.69454199
C        3.62335856       1.17381330      -6.91107756
N        3.57307400       1.95247441      -5.80017280
C        5.68162437       3.17920769      -3.16021995
O        6.84644009       2.82318953      -3.19436207
C        5.26416812       4.41132014      -2.44555054
C        3.95688645       4.58589248      -2.66846033
C        3.06306350       5.70857942      -2.31835941
O        1.85086496       5.52108666      -2.24982963
C        3.57601109       7.08569493      -2.11535662
C        2.87642324       7.91881175      -1.23098888
C        3.27008201       9.24566863      -1.04945227
C        4.36039964       9.75021974      -1.75573788
C        5.04714283       8.93499895      -2.65502279
C        4.64848374       7.60943405      -2.84666883
O        6.14885826       5.20611376      -1.77992877
H        2.55828822       0.82975497       0.47787030
H        3.97565899       2.24126955      -0.92102109
H        0.80028108       2.54577894      -3.84370108
H       -0.61029764       1.11843663      -2.42161276
H        6.30730177       0.69092504      -4.25736562
H        6.30803582      -0.75655521      -6.25152080
H        2.84748233       1.37821101      -7.64687114
H        2.01257853       7.53834144      -0.68906191
H        2.72046823       9.88532038      -0.36396006
H        4.66737705      10.78368047      -1.61480009
H        5.88808298       9.33523189      -3.21526925
H        5.17960664       7.00894902      -3.57929945
H        7.02165741       4.76740957      -1.87403788
C       -0.88208270      -0.88208270      -0.88208270
C       -0.30039211      -1.66594376      -1.87283254
C       -1.10744112      -2.46830291      -2.68071439
C       -2.50715571      -2.49534532      -2.51506559
C       -3.06934798      -1.70176151      -1.50183864
C       -2.26226392      -0.89868011      -0.69133686
C       -3.41416901      -3.36600588      -3.38957932
H       -4.47666076      -3.21098476      -3.16512685
N       -3.06218986      -4.76204500      -3.23688097
C       -3.54012111      -5.52875714      -2.16619435
C       -2.90963136      -6.70946466      -1.78278556
C       -3.46160614      -7.48375880      -0.76032197
C       -4.64972274      -7.07837969      -0.17526044
Br      -5.47581560      -8.12050317       1.15946556
C       -5.21632298      -5.89048379      -0.60144265
N       -4.67022060      -5.09724374      -1.55825687
C       -2.41505634      -5.25307208      -4.35292358
O       -1.92895763      -6.34493586      -4.59009818
C       -2.52019267      -4.20358370      -5.39726245
C       -3.17814428      -3.16739138      -4.86570360
C       -3.67808763      -1.92432061      -5.48759410
O       -3.89604455      -0.93950685      -4.78622983
C       -3.99852184      -1.84465890      -6.93388190
C       -3.86055533      -0.60046690      -7.56520165
C       -4.21106998      -0.44657223      -8.90756071
C       -4.70834838      -1.53281117      -9.62519771
C       -4.87092466      -2.76792371      -8.99831618
C       -4.53092235      -2.92198904      -7.65167523
O       -2.07261896      -4.39152787      -6.67075396
H        0.77548180      -1.65803737      -2.02761732
H       -0.62377537      -3.06853393      -3.44564032
H       -4.14801320      -1.69884806      -1.34289985
H       -2.72003056      -0.28791022       0.07818903
H       -1.97964641      -7.03004406      -2.24590196
H       -2.96350354      -8.39432373      -0.44517415
H       -6.15614529      -5.52704927      -0.18936992
H       -3.49026003       0.25767144      -7.00739328
H       -4.10347257       0.52211473      -9.38839083
H       -4.98162823      -1.41346301     -10.67076637
H       -5.27254111      -3.60963977      -9.55640324
H       -4.70156372      -3.88557599      -7.18071540
H       -1.68516270      -5.29306795      -6.68487420
C       -0.88208270       0.88208270       0.88208270
C       -0.51658395       1.11978368       2.20280078
C       -1.32514046       1.92241452       3.00890344
C       -2.51305018       2.49453372       2.50998272
C       -2.85545974       2.24686350       1.17062489
C       -2.04611197       1.44424681       0.36192211
C       -3.41768712       3.37732487       3.37474222
H       -4.32894592       3.67965364       2.84417281
N       -2.68781068       4.54093490       3.83237026
C       -2.53242696       5.67623868       3.02640695
C       -1.52503588       6.60566910       3.27117660
C       -1.45147840       7.76208686       2.49212165
C       -2.40960200       7.97814701       1.51561387
Br      -2.40011662       9.55394367       0.48279290
C       -3.37701408       7.00820388       1.32303146
N       -3.43701362       5.85381738       2.03489022
C       -2.38423470       4.46028286       5.17653444
O       -1.75314475       5.20249730       5.90834963
C       -3.12552121       3.28875557       5.70676203
C       -3.79006548       2.73423289       4.68694088
C       -4.78257122       1.64040853       4.66702258
O       -4.97820143       1.01681364       3.62676616
C       -5.61236180       1.31248395       5.85221689
C       -6.03675626      -0.01503667       6.00450428
C       -6.87509810      -0.37189862       7.06200343
C       -7.30035698       0.59659993       7.96940035
C       -6.90196053       1.92372320       7.81148084
C       -6.07145210       2.28563462       6.74749990
O       -3.13565335       2.96794607       7.03130137
H        0.38989058       0.68450913       2.61555434
H       -1.01324812       2.08901180       4.03568970
H       -3.76572122       2.67451602       0.74952387
H       -2.33584073       1.26003781      -0.66612679
H       -0.77609776       6.43815525       4.04133941
H       -0.65691312       8.47959082       2.66649748
H       -4.16422346       7.12771918       0.58062184
H       -5.72431530      -0.77436578       5.29003235
H       -7.20149481      -1.40277577       7.17102964
H       -7.95344603       0.31920058       8.79321100
H       -7.24680351       2.67956606       8.51221455
H       -5.80644141       3.33215710       6.62925660
H       -2.56144567       3.63256703       7.46909215
C        0.88208270      -0.88208270       0.88208270
C        2.23255449      -1.02489447       0.58171945
C        3.03659689      -1.83409578       1.38576574
C        2.50296850      -2.51690316       2.49769496
C        1.13854177      -2.34918155       2.78522481
C        0.33244769      -1.53824531       1.98158788
C        3.36399537      -3.41159824       3.39416059
H        2.77076346      -3.91376748       4.16824143
N        4.42941435      -2.63686841       3.99483307
C        4.22067568      -1.86752994       5.14686698
C        5.08245074      -0.82923409       5.49019675
C        4.88324249      -0.13643053       6.68601390
C        3.85261941      -0.52507279       7.52567068
Br       3.58143507       0.32810823       9.18352636
C        3.03127093      -1.56036248       7.11661601
N        3.17623217      -2.21390035       5.93558869
C        5.65620783      -2.93052981       3.43431437
O        6.76599137      -2.46734437       3.63065594
C        5.44858422      -4.11212476       2.56032983
C        4.15269807      -4.43801632       2.62052486
C        3.42599954      -5.59822408       2.06577871
O        2.21325177      -5.52473095       1.88379853
C        4.10408262      -6.88755608       1.78542393
C        3.59045705      -7.68373548       0.75203134
C        4.14293596      -8.93746162       0.48480532
C        5.20698624      -9.40636826       1.25300276
C        5.70839591      -8.63078820       2.29798046
C        5.15011638      -7.37993917       2.57453107
O        6.47621014      -4.73821834       1.92047230
H        2.66829880      -0.51629886      -0.27442477
H        4.08684966      -1.92585474       1.12524522
H        0.69141168      -2.85984483       3.63850459
H       -0.71986759      -1.43142560       2.21819374
H        5.89460429      -0.52780524       4.83318289
H        5.54039162       0.68570466       6.94831446
H        2.21371792      -1.91952174       7.73932482
H        2.74779399      -7.33322782       0.15896007
H        3.73687637      -9.54927321      -0.31640091
H        5.63761626     -10.38288310       1.04535825
H        6.52876188      -9.00510516       2.90471708
H        5.53752825      -6.81384864       3.41647822
H        7.28220209      -4.22858852       2.15231424
