169
Properties=species:S:1:pos:R:3 pbc="F F F"
C        0.00000000       0.00000000       0.00000000
F        8.27015505       3.92933644       2.94026698
C        7.77410463       4.27391086       1.74502796
C        7.73625202       3.33518245       0.72254685
C        7.20892398       3.68991671      -0.52039619
C        6.72097266       4.99097608      -0.74724905
C        6.76654687       5.92157662       0.30811243
C        7.29566427       5.56314786       1.54925682
C        6.06485421       5.38826197      -2.06342603
H        6.07900204       6.47636845      -2.20432739
C        4.65211726       4.90259570      -2.07503052
C        4.41164597       4.01137396      -3.03589708
N        3.30694386       3.27669097      -3.37896215
C        2.53161793       2.47708185      -2.50887142
C        2.78777595       2.33995208      -1.13790528
C        1.97448538       1.53990281      -0.32786094
C        0.88139267       0.88139267      -0.88139267
C        0.58999552       1.02247167      -2.23430755
C        1.40861007       1.82185309      -3.03851687
C        5.66224215       3.93348816      -3.85100972
O        5.72046053       3.23955548      -4.85341498
N        6.61397199       4.76305393      -3.25302635
C        7.91281014       5.05111139      -3.76912809
C        8.40630428       4.41625116      -4.91918010
C        9.67846537       4.70757517      -5.42986987
C       10.48299163       5.64158302      -4.79142739
Br      12.19680235       6.03929330      -5.47737041
C       10.02511159       6.28442249      -3.64840974
C        8.75039190       5.99111567      -3.14480736
H        8.10972476       2.33143416       0.89989804
H        7.17444128       2.93845728      -1.30758032
H        6.37882679       6.92976737       0.17388592
H        7.32916136       6.27642362       2.36689085
H        3.91758928       5.21719704      -1.34752708
H        3.44894228       2.80826212      -4.27834561
H        3.64234660       2.82188871      -0.67410319
H        2.21014289       1.43585307       0.72793287
H       -0.26655952       0.51906597      -2.67410117
H        1.16191598       1.93106297      -4.09239596
H        7.82560600       3.67319024      -5.45731631
H       10.02189896       4.19484002      -6.32488966
H       10.64679206       7.01572886      -3.13813471
H        8.44450409       6.52748077      -2.25255806
F       -9.56513832       0.83912616      -0.53321234
C       -8.96640711      -0.18951085      -1.14706957
C       -8.15159885       0.04863685      -2.24592562
C       -7.51788336      -1.02169005      -2.87966348
C       -7.70202808      -2.33903454      -2.41813516
C       -8.52918431      -2.55180827      -1.29901848
C       -9.16194961      -1.47883504      -0.66877066
C       -6.96265383      -3.52012704      -3.03376134
H       -7.47361775      -4.46712417      -2.81895596
C       -5.57279695      -3.56885497      -2.48809156
C       -4.63665802      -3.40098442      -3.42127458
N       -3.26961059      -3.31838804      -3.37459834
C       -2.51142511      -2.47610810      -2.53003799
C       -3.07369317      -1.60181269      -1.59012744
C       -2.26600830      -0.80086373      -0.77537710
C       -0.88139267      -0.88139267      -0.88139267
C       -0.29813537      -1.76075758      -1.78788178
C       -1.11159940      -2.55661007      -2.60077056
C       -5.35874099      -3.35857195      -4.72942709
O       -4.75008429      -3.27895672      -5.78438997
N       -6.72798248      -3.43801105      -4.46405875
C       -7.76406896      -3.52779202      -5.44118865
C       -7.49175239      -3.43529817      -6.81468498
C       -8.50953932      -3.53325988      -7.77311120
C       -9.82420167      -3.72252519      -7.36927517
Br     -11.19857779      -3.85772759      -8.65716068
C      -10.12716539      -3.81399444      -6.01678399
C       -9.10412898      -3.71875411      -5.06343183
H       -8.00784706       1.06519701      -2.59861083
H       -6.87190737      -0.81671194      -3.73185957
H       -8.67693170      -3.55484335      -0.90293320
H       -9.79747371      -1.63800399       0.19678357
H       -5.35966070      -3.68732187      -1.43533084
H       -2.87313560      -3.34408572      -4.31832869
H       -4.14935342      -1.49673367      -1.49225140
H       -2.73087525      -0.11696762      -0.07022023
H        0.78243299      -1.83708434      -1.87195628
H       -0.64096235      -3.24713644      -3.29727613
H       -6.48458602      -3.28147985      -7.19004668
H       -8.25540472      -3.45871122      -8.82751268
H      -11.15304720      -3.95954558      -5.68806283
H       -9.39960171      -3.80222641      -4.02271480
F        0.70738413       0.38366938       9.58293925
C       -0.30351760       1.02095896       8.97851097
C       -0.03779663       2.12780838       8.18328260
C       -1.08958518       2.78608308       7.54356863
C       -2.41595564       2.34118279       7.70205936
C       -2.65677830       1.21353052       8.50970224
C       -1.60228009       0.55872025       9.14855498
C       -3.57720865       2.98447749       6.95485608
H       -4.53452639       2.77616993       7.44900156
C       -3.61352570       2.45956933       5.55664845
C       -3.41867799       3.40354375       4.63669528
N       -3.31687173       3.37528635       3.27043889
C       -2.47584846       2.52952008       2.51220266
C       -1.62340285       1.56901474       3.07321571
C       -0.82255385       0.75436391       2.26533137
C       -0.88139267       0.88139267       0.88139267
C       -1.73908069       1.80885845       0.29883560
C       -2.53494511       2.62149102       1.11254391
C       -3.36801761       4.70044699       5.37827543
O       -3.26442612       5.76276240       4.78624247
N       -3.47117567       4.41664756       6.74222905
C       -3.56200004       5.38001674       7.79103285
C       -3.44585831       6.75578659       7.54009064
C       -3.54486369       7.70083759       8.57020913
C       -3.75901708       7.28098083       9.87600414
Br      -3.89571902       8.55084881      11.26689822
C       -3.87427913       5.92575716      10.15790752
C       -3.77784537       4.98589409       9.12257546
H        0.98570298       2.46768660       8.05927726
H       -0.86302265       3.64438481       6.91307142
H       -3.66743642       0.83000712       8.63726471
H       -1.78308253      -0.31345363       9.76906523
H       -3.74396834       1.41181028       5.32653478
H       -3.32325508       4.32488133       2.88741360
H       -1.53540561       1.45419868       4.14873422
H       -0.15568244       0.03273169       2.72964898
H       -1.79845823       1.90952778      -0.78137839
H       -3.20848552       3.33465302       0.64223638
H       -3.27202847       7.14327965       6.54080444
H       -3.45150567       8.75757959       8.33254337
H       -4.03944684       5.58450610      11.17670268
H       -3.88053052       3.94237054       9.40164187
F       -3.36965796      -7.14552137       5.48336109
C       -2.08159628      -6.79484407       5.58973974
C       -1.21649749      -7.03492629       4.53045882
C        0.12393222      -6.65947483       4.63582983
C        0.60647278      -6.04540562       5.80731939
C       -0.29308086      -5.80898852       6.86410340
C       -1.63254003      -6.18694812       6.75514721
C        2.04193266      -5.54924967       5.92535988
H        2.34241989      -5.44204063       6.97523735
C        2.16479171      -4.23027469       5.23467708
C        3.00319644      -4.25630534       4.19941524
N        3.37294308      -3.32177445       3.26787945
C        2.50109633      -2.53531810       2.48115677
C        1.10355085      -2.59727047       2.56481199
C        0.29544019      -1.78273779       1.76407115
C        0.88139267      -0.88139267       0.88139267
C        2.26645690      -0.78166955       0.79864829
C        3.06805286      -1.60062532       1.60030185
C        3.62651950      -5.61494423       4.20527630
O        4.49633727      -5.91410626       3.40298746
N        3.04132933      -6.34868758       5.24003537
C        3.42060584      -7.66158082       5.65086297
C        4.38707071      -8.40180814       4.95285669
C        4.76502736      -9.68731764       5.36356541
C        4.17521865     -10.25705327       6.48373012
Br       4.68318183     -11.98785183       7.04243239
C        3.21219204      -9.55174038       7.19401141
C        2.84121528      -8.26505325       6.78004639
H       -1.59067176      -7.50540420       3.62652844
H        0.78630887      -6.84283689       3.79133311
H        0.04137249      -5.31745855       7.77587720
H       -2.33038866      -6.00301828       7.56606451
H        1.59553886      -3.35956190       5.52721264
H        4.16490106      -3.65797407       2.71267488
H        0.61006425      -3.30154729       3.22672695
H       -0.78560966      -1.86785851       1.83581425
H        2.73343726      -0.07463221       0.11853815
H        4.14944942      -1.50372637       1.53219913
H        4.87814237      -8.01126578       4.06670439
H        5.51966907     -10.22602946       4.79593010
H        2.74128410      -9.98818291       8.07118861
H        2.08794406      -7.76045747       7.37614140
