198
Properties=species:S:1:pos:R:3 pbc="F F F"
F        9.18005907       4.83924046       2.03036296
C        8.68400865       5.18381488       0.83512393
C        8.64615604       4.24508648      -0.18735717
C        8.11882800       4.59982074      -1.43030022
C        7.63087669       5.90088010      -1.65715307
C        7.67645090       6.83148064      -0.60179160
C        8.20556829       6.47305189       0.63935280
C        6.97475823       6.29816600      -2.97333006
H        6.98890606       7.38627247      -3.11423142
C        5.56202129       5.81249972      -2.98493454
C        5.32155000       4.92127799      -3.94580110
N        4.21684789       4.18659499      -4.28886617
C        3.44152195       3.38698588      -3.41877544
C        3.69767998       3.24985610      -2.04780930
C        2.88438940       2.44980683      -1.23776497
C        1.79129670       1.79129670      -1.79129670
C        1.49989955       1.93237569      -3.14421157
C        2.31851410       2.73175711      -3.94842090
C        6.57214617       4.84339218      -4.76091375
O        6.63036455       4.14945950      -5.76331901
N        7.52387602       5.67295796      -4.16293038
C        8.82271417       5.96101541      -4.67903212
C        9.31620830       5.32615518      -5.82908413
C       10.58836939       5.61747919      -6.33977390
C       11.39289565       6.55148705      -5.70133141
C       10.93501561       7.19432651      -4.55831377
C        9.66029592       6.90101969      -4.05471139
H        9.01962879       3.24133818      -0.01000599
H        8.08434531       3.84836130      -2.21748434
H        7.28873081       7.83967140      -0.73601811
H        8.23906538       7.18632765       1.45698682
H        4.82749331       6.12710106      -2.25743110
H        4.35884631       3.71816614      -5.18824963
H        4.55225063       3.73179273      -1.58400721
H        3.12004692       2.34575709      -0.18197116
H        0.64334451       1.42896999      -3.58400520
H        2.07182000       2.84096700      -5.00229999
H        8.73551002       4.58309427      -6.36722033
H       10.93180298       5.10474404      -7.23479368
H       11.55669608       7.92563288      -4.04803873
H        9.35440811       7.43738480      -3.16246208
C       12.69980214       6.85477033      -6.22441332
C       13.79433632       7.10877007      -6.66249442
Br      15.56410552       7.51946618      -7.37083451
F       -8.71429501       2.26867015      -5.54331172
C       -8.44683200       0.95647486      -5.54234246
C       -7.33517160       0.48340523      -6.22683332
C       -7.04896491      -0.88290704      -6.21707701
C       -7.87971479      -1.78447056      -5.52472450
C       -8.99730090      -1.27760169      -4.83482054
C       -9.28061991       0.08930492      -4.84795239
C       -7.55248173      -3.26892106      -5.42485150
H       -8.44548741      -3.85948817      -5.18443437
C       -6.51903385      -3.47458799      -4.36583372
C       -5.37727736      -3.97431389      -4.83703783
N       -4.17028295      -4.26504132      -4.25698478
C       -3.40159871      -3.39834880      -3.44733577
C       -3.79196093      -2.09604796      -3.10733649
C       -2.98902050      -1.29129925      -2.29164146
C       -1.79129670      -1.79129670      -1.79129670
C       -1.39414011      -3.09009998      -2.09224672
C       -2.20051662      -3.88804774      -2.91012774
C       -5.62113445      -4.27433062      -6.28098704
O       -4.76582511      -4.80933137      -6.96798659
N       -6.91583691      -3.85182846      -6.59209899
C       -7.57892504      -4.04265005      -7.84118661
C       -6.92120413      -4.60368534      -8.94655814
C       -7.57700358      -4.79901498     -10.16960392
C       -8.90820510      -4.43004478     -10.30746423
C       -9.58623000      -3.86821048      -9.23321542
C       -8.92557981      -3.67879545      -8.01165174
H       -6.69363732       1.18008261      -6.75741825
H       -6.16628451      -1.23611262      -6.74779382
H       -9.64885009      -1.94356812      -4.27200211
H      -10.13910825       0.48483392      -4.31413188
H       -6.67674224      -3.20359539      -3.33168785
H       -3.57345069      -4.78640364      -4.90540775
H       -4.70926374      -1.66434264      -3.49444419
H       -3.30770946      -0.27798830      -2.06207741
H       -0.46459855      -3.49255021      -1.69917093
H       -1.88196522      -4.90516119      -3.12796057
H       -5.87931835      -4.90585594      -8.90065034
H       -7.03151440      -5.23921932     -11.00060697
H      -10.62793144      -3.57283827      -9.32959798
H       -9.50678604      -3.24042592      -7.20704303
C       -9.58577645      -4.63112870     -11.56208063
C      -10.15324246      -4.79953649     -12.61282187
Br     -11.07078699      -5.07183764     -14.31178158
F       -0.44174311       1.03280929      10.51438417
C       -1.42020609       1.71116514       9.90132837
C       -1.10607018       2.83049595       9.14203356
C       -2.12394799       3.53177494       8.49322603
C       -3.46480116       3.11754968       8.60655902
C       -3.75490267       1.97647040       9.37835007
C       -2.73420709       1.27860507      10.02645522
C       -4.58966338       3.80941294       7.84717797
H       -5.56442928       3.61357451       8.31140616
C       -4.60297059       3.32112489       6.43536007
C       -4.36054380       4.28267694       5.54540835
N       -4.22409570       4.28632549       4.18188787
C       -3.38533869       3.43847020       3.42347439
C       -2.57227038       2.44231592       3.98075908
C       -1.77158776       1.62785193       3.17252152
C       -1.79129670       1.79129670       1.79129670
C       -2.60988036       2.75511344       1.21149301
C       -3.40578366       3.56728408       2.02562437
C       -4.29636916       5.55867582       6.32140713
O       -4.15065007       6.63257032       5.75992268
N       -4.44199453       5.24326827       7.67450155
C       -4.53560602       6.18185609       8.74529959
C       -4.37826695       7.56005437       8.53312629
C       -4.48003255       8.48102033       9.58456960
C       -4.73851094       8.03399216      10.87321102
C       -4.89525441       6.67552136      11.11688012
C       -4.79579246       5.75993835      10.06029618
H       -0.07143741       3.14674900       9.05278655
H       -1.85949690       4.39957331       7.89112074
H       -4.77789756       1.61617794       9.47034481
H       -2.95301973       0.39600962      10.61937686
H       -4.75383972       2.28325000       6.17493576
H       -4.19654682       5.24514289       3.82357237
H       -2.51511715       2.29811400       5.05481942
H       -1.13542836       0.87766911       3.63467770
H       -2.63866841       2.88455454       0.13309674
H       -4.04866643       4.30932652       1.55709404
H       -4.16885033       7.96803968       7.54893461
H       -4.35386869       9.54065512       9.37681690
H       -5.09535178       6.31303014      12.12198578
H       -4.93201668       4.71270893      10.30952939
C       -4.84571557       8.97762345      11.95564676
C       -4.93549945       9.76791466      12.86218670
Br      -5.08067240      11.04574871      14.32798510
F       -2.51627165      -7.62807097       6.87713725
C       -1.20992472      -7.33495129       6.90767303
C       -0.40838377      -7.66428961       5.82269385
C        0.95129969      -7.34900244       5.84864683
C        1.51689641      -6.70587100       6.96614245
C        0.68068919      -6.37865477       8.05037917
C       -0.67831199      -6.69665478       8.02092459
C        2.97752084      -6.27411337       6.99462008
H        3.33249414      -6.13357259       8.02334321
C        3.12729199      -4.99545157       6.23671199
C        3.91312273      -5.10883266       5.16667370
N        4.28015555      -4.23658885       4.17556465
C        3.40848312      -3.44605780       3.39274236
C        2.01517355      -3.43716615       3.54300568
C        1.20770891      -2.62231095       2.74194134
C        1.79129670      -1.79129670       1.79129670
C        3.17392094      -1.76186138       1.64070449
C        3.97472683      -2.58077649       2.44318878
C        4.47331146      -6.49406040       5.20908024
O        5.28916273      -6.87083807       4.38314227
N        3.90541744      -7.15093097       6.30341594
C        4.24356550      -8.46033806       6.75885814
C        5.14069965      -9.27707781       6.05367015
C        5.47877566     -10.55910341       6.50774340
C        4.91785108     -11.04820400       7.67965902
C        4.02314061     -10.26590615       8.39860914
C        3.69192713      -8.98318828       7.94091159
H       -0.84648812      -8.15711131       4.96034976
H        1.56343278      -7.60223314       4.98452503
H        1.08049648      -5.86256784       8.92135600
H       -1.32742056      -6.44269340       8.85313337
H        2.61305286      -4.08604106       6.51293156
H        5.02845175      -4.63531212       3.60149820
H        1.52228332      -4.08605164       4.25971561
H        0.12857343      -2.65222869       2.86697305
H        3.63961824      -1.10978379       0.90691767
H        5.05492041      -2.53895666       2.32120992
H        5.60611970      -8.95136492       5.12834001
H        6.17999361     -11.15867699       5.93267010
H        3.57531428     -10.63879362       9.31625980
H        2.99188069      -8.41642183       8.54595248
C        5.26447455     -12.36425512       8.15025611
C        5.55477170     -13.46644794       8.54438118
Br       6.02415764     -15.24860049       9.18164808
C       -0.00445707       0.01189536      -1.78238275
H       -0.66409135       0.67374010      -2.43557963
H        0.65740317      -0.63156657      -2.45157240
C       -0.90989263      -0.90692880      -0.91072765
C        0.90977584       0.90977584      -0.90977584
C       -0.00465871       1.77757030       0.00794375
H       -0.66225468       2.44313916      -0.64384735
H        0.64322798       2.43503045       0.67728295
C       -1.78241447       0.00034974      -0.00472694
H       -2.45427497      -0.65498947       0.64260836
H       -2.43311707       0.67328779      -0.65473579
C       -0.91132561       0.90220522       0.91563759
C       -0.01476271      -0.02253852       1.78660255
H       -0.67934791      -0.69751639       2.42135241
H        0.63392994       0.61504881       2.47327442
C        0.01484550      -1.77751727      -0.01636693
H        0.67870853      -2.42144646      -0.68295456
H       -0.62264859      -2.45592969       0.64226336
C        1.78714474       0.01002794       0.00389507
H        2.44202412       0.67113390       0.66197326
H        2.45385902      -0.65136977      -0.64189061
C        0.91606151      -0.90478549       0.90901405
