190
Properties=species:S:1:pos:R:3 pbc="F F F"
F        9.18005907       4.83924046       2.03036296
C        8.68400865       5.18381488       0.83512393
C        8.64615604       4.24508648      -0.18735717
C        8.11882800       4.59982074      -1.43030022
C        7.63087669       5.90088010      -1.65715307
C        7.67645090       6.83148064      -0.60179160
C        8.20556829       6.47305189       0.63935280
C        6.97475823       6.29816600      -2.97333006
H        6.98890606       7.38627247      -3.11423142
C        5.56202129       5.81249972      -2.98493454
C        5.32155000       4.92127799      -3.94580110
N        4.21684789       4.18659499      -4.28886617
C        3.44152195       3.38698588      -3.41877544
C        3.69767998       3.24985610      -2.04780930
C        2.88438940       2.44980683      -1.23776497
C        1.79129670       1.79129670      -1.79129670
C        1.49989955       1.93237569      -3.14421157
C        2.31851410       2.73175711      -3.94842090
C        6.57214617       4.84339218      -4.76091375
O        6.63036455       4.14945950      -5.76331901
N        7.52387602       5.67295796      -4.16293038
C        8.82271417       5.96101541      -4.67903212
C        9.31620830       5.32615518      -5.82908413
C       10.58836939       5.61747919      -6.33977390
C       11.39289565       6.55148705      -5.70133141
Br      13.10670637       6.94919732      -6.38727443
C       10.93501561       7.19432651      -4.55831377
C        9.66029592       6.90101969      -4.05471139
H        9.01962879       3.24133818      -0.01000599
H        8.08434531       3.84836130      -2.21748434
H        7.28873081       7.83967140      -0.73601811
H        8.23906538       7.18632765       1.45698682
H        4.82749331       6.12710106      -2.25743110
H        4.35884631       3.71816614      -5.18824963
H        4.55225063       3.73179273      -1.58400721
H        3.12004692       2.34575709      -0.18197116
H        0.64334451       1.42896999      -3.58400520
H        2.07182000       2.84096700      -5.00229999
H        8.73551002       4.58309427      -6.36722033
H       10.93180298       5.10474404      -7.23479368
H       11.55669608       7.92563288      -4.04803873
H        9.35440811       7.43738480      -3.16246208
F       -8.61974102       2.30529144      -5.67448700
C       -8.36813396       0.99011260      -5.65467824
C       -7.25418443       0.49563464      -6.32004990
C       -6.98459283      -0.87377066      -6.29058547
C       -7.83432385      -1.75697749      -5.59760852
C       -8.95385554      -1.22856940      -4.92729820
C       -9.22051254       0.14135513      -4.96010997
C       -7.52620737      -3.24390687      -5.47614004
H       -8.42906016      -3.82086469      -5.23948509
C       -6.50798960      -3.44908813      -4.40237783
C       -5.36680795      -3.96800760      -4.85381354
N       -4.17039242      -4.26607210      -4.25584452
C       -3.40101519      -3.39890019      -3.44736789
C       -3.77968128      -2.08804448      -3.12761962
C       -2.97687087      -1.28314239      -2.31194794
C       -1.79129670      -1.79129670      -1.79129670
C       -1.40625986      -3.09826585      -2.07196110
C       -2.21239792      -3.89635340      -2.88994079
C       -5.59705786      -4.28247199      -6.29692225
O       -4.74013877      -4.83585129      -6.96715301
N       -6.88278253      -3.84836821      -6.62861361
C       -7.53320733      -4.04631619      -7.88323818
C       -6.86918243      -4.62841406      -8.97385112
C       -7.51268384      -4.83064251     -10.20229613
C       -8.83760923      -4.44754168     -10.36056320
Br      -9.70960888      -4.72043744     -12.01313180
C       -9.52155516      -3.86477813      -9.30132260
C       -8.87325730      -3.66853905      -8.07423066
H       -6.59803521       1.17818534      -6.85112308
H       -6.09997688      -1.24382412      -6.80638995
H       -9.62003194      -1.87990608      -4.36448229
H      -10.08046703       0.55347539      -4.44141457
H       -6.67471966      -3.16380051      -3.37350530
H       -3.57220821      -4.80227382      -4.89078005
H       -4.68704505      -1.65014612      -3.53085940
H       -3.28604059      -0.26341845      -2.09831613
H       -0.48637774      -3.50698709      -1.66295486
H       -1.90355117      -4.91973635      -3.09179946
H       -5.83163223      -4.94238900      -8.91180339
H       -6.96268467      -5.28728606     -11.02136997
H      -10.55840217      -3.55821080      -9.41375473
H       -9.45867636      -3.21362287      -7.28195577
F       -0.00604931       1.51823023      10.46465704
C       -1.04336455       2.12034901       9.86898604
C       -0.81901579       3.21496858       9.04461532
C       -1.89841342       3.83641504       8.41412050
C       -3.21103329       3.36679004       8.61108654
C       -3.40977438       2.25218217       9.44776658
C       -2.32776260       1.63423768      10.07726710
C       -4.40181794       3.96856754       7.87586881
H       -5.34354779       3.75067146       8.39519070
C       -4.45657168       3.41253284       6.49035103
C       -4.30216970       4.34010698       5.54635240
N       -4.22904822       4.28414697       4.17911386
C       -3.38614846       3.44019443       3.42094039
C       -2.50107224       2.51066842       3.98360472
C       -1.70007188       1.69587012       3.17601921
C       -1.79129670       1.79129670       1.79129670
C       -2.68135123       2.68721496       1.20792062
C       -3.47720047       3.50023012       2.02126152
C       -4.26403203       5.65371399       6.25870608
O       -4.19641130       6.70479500       5.64193677
N       -4.33172571       5.39768412       7.63035453
C       -4.42112971       6.38160635       8.66002564
C       -4.34051978       7.75372721       8.37720063
C       -4.43810022       8.71875581       9.38876645
C       -4.61500538       8.32308306      10.70762566
Br      -4.74964701       9.61986353      12.07366758
C       -4.69452267       6.97219508      11.02093814
C       -4.59973780       6.01218283      10.00410637
H        0.19391168       3.57389002       8.89099461
H       -1.70423878       4.68536950       7.76058267
H       -4.40883519       1.84998880       9.60559633
H       -2.47610891       0.77217890      10.72011839
H       -4.56895395       2.35743656       6.28563497
H       -4.26440882       5.22477894       3.77607432
H       -2.38757404       2.42132446       5.05915207
H       -1.00778030       0.99901573       3.64097913
H       -2.76603413       2.76292890       0.12735666
H       -4.17610083       4.18834438       1.55064177
H       -4.19664787       8.12289487       7.36628188
H       -4.37299821       9.77180100       9.12654149
H       -4.83033060       6.64986011      12.05017698
H       -4.67356530       4.97305607      10.30763362
F       -2.46212585      -8.04267262       6.40838981
C       -1.17340936      -7.69369802       6.51241094
C       -0.31018309      -7.93654887       5.45223391
C        1.03093550      -7.56287703       5.55513642
C        1.51604519      -6.94781935       6.72504531
C        0.61835529      -6.70858759       7.78278026
C       -0.72180154      -7.08477412       7.67629480
C        2.95238559      -6.45356191       6.84030679
H        3.25453831      -6.34527606       7.88959558
C        3.07614646      -5.13575982       6.14754928
C        3.91302113      -5.16448656       5.11112140
N        4.28276938      -4.23182966       4.17771001
C        3.41092243      -3.44525072       3.39111012
C        2.01341122      -3.50507005       3.47686411
C        1.20532041      -2.69052678       2.67611401
C        1.79129670      -1.79129670       1.79129670
C        3.17638230      -1.69368742       1.70641709
C        3.97795338      -2.51264307       2.50809565
C        4.53439757      -6.52401186       5.11804268
O        5.40262794      -6.82557963       4.31493550
N        3.94964362      -7.25542292       6.15469781
C        4.32762299      -8.56826886       6.56686985
C        5.29201618      -9.31089022       5.86854121
C        5.66871489     -10.59635074       6.28055684
C        5.07970126     -11.16362497       7.40238788
Br       5.58597902     -12.89434803       7.96285107
C        4.11871380     -10.45590525       8.11303684
C        3.74899196      -9.16928185       7.69775319
H       -0.68633492      -8.40778685       4.54952103
H        1.69183093      -7.74840703       4.70995299
H        0.95482784      -6.21622912       8.69336336
H       -1.41821641      -6.89867354       8.48794908
H        2.50856820      -4.26380837       6.43964891
H        5.07344270      -4.56996750       3.62185188
H        1.51986610      -4.20768288       4.14050160
H        0.12425371      -2.77398733       2.74953413
H        3.64339901      -0.98830207       1.02461861
H        5.05938897      -2.41739958       2.43829843
H        5.78237228      -8.92233020       4.98112215
H        6.42176289     -11.13696450       5.71261331
H        3.64844244     -10.89040730       8.99151794
H        2.99730637      -8.66274510       8.29420352
C       -0.00445707       0.01189536      -1.78238275
H       -0.66409135       0.67374010      -2.43557963
H        0.65740317      -0.63156657      -2.45157240
C       -0.90989263      -0.90692880      -0.91072765
C        0.90977584       0.90977584      -0.90977584
C       -0.00465871       1.77757030       0.00794375
H       -0.66225468       2.44313916      -0.64384735
H        0.64322798       2.43503045       0.67728295
C       -1.78241447       0.00034974      -0.00472694
H       -2.45427497      -0.65498947       0.64260836
H       -2.43311707       0.67328779      -0.65473579
C       -0.91132561       0.90220522       0.91563759
C       -0.01476271      -0.02253852       1.78660255
H       -0.67934791      -0.69751639       2.42135241
H        0.63392994       0.61504881       2.47327442
C        0.01484550      -1.77751727      -0.01636693
H        0.67870853      -2.42144646      -0.68295456
H       -0.62264859      -2.45592969       0.64226336
C        1.78714474       0.01002794       0.00389507
H        2.44202412       0.67113390       0.66197326
H        2.45385902      -0.65136977      -0.64189061
C        0.91606151      -0.90478549       0.90901405
