177
Properties=species:S:1:pos:R:3 pbc="F F F"
C        0.00000000       0.00000000       0.00000000
F        8.27015505       3.92933644       2.94026698
C        7.77410463       4.27391086       1.74502796
C        7.73625202       3.33518245       0.72254685
C        7.20892398       3.68991671      -0.52039619
C        6.72097266       4.99097608      -0.74724905
C        6.76654687       5.92157662       0.30811243
C        7.29566427       5.56314786       1.54925682
C        6.06485421       5.38826197      -2.06342603
H        6.07900204       6.47636845      -2.20432739
C        4.65211726       4.90259570      -2.07503052
C        4.41164597       4.01137396      -3.03589708
N        3.30694386       3.27669097      -3.37896215
C        2.53161793       2.47708185      -2.50887142
C        2.78777595       2.33995208      -1.13790528
C        1.97448538       1.53990281      -0.32786094
C        0.88139267       0.88139267      -0.88139267
C        0.58999552       1.02247167      -2.23430755
C        1.40861007       1.82185309      -3.03851687
C        5.66224215       3.93348816      -3.85100972
O        5.72046053       3.23955548      -4.85341498
N        6.61397199       4.76305393      -3.25302635
C        7.91281014       5.05111139      -3.76912809
C        8.40630428       4.41625116      -4.91918010
C        9.67846537       4.70757517      -5.42986987
C       10.48299163       5.64158302      -4.79142739
C       10.02511159       6.28442249      -3.64840974
C        8.75039190       5.99111567      -3.14480736
H        8.10972476       2.33143416       0.89989804
H        7.17444128       2.93845728      -1.30758032
H        6.37882679       6.92976737       0.17388592
H        7.32916136       6.27642362       2.36689085
H        3.91758928       5.21719704      -1.34752708
H        3.44894228       2.80826212      -4.27834561
H        3.64234660       2.82188871      -0.67410319
H        2.21014289       1.43585307       0.72793287
H       -0.26655952       0.51906597      -2.67410117
H        1.16191598       1.93106297      -4.09239596
H        7.82560600       3.67319024      -5.45731631
H       10.02189896       4.19484002      -6.32488966
H       10.64679206       7.01572886      -3.13813471
H        8.44450409       6.52748077      -2.25255806
C       11.78989811       5.94486630      -5.31450930
C       12.88443230       6.19886605      -5.75259040
Br      14.65420150       6.60956216      -6.46093048
F       -7.64794350       3.23732662      -4.84860762
C       -7.40667551       1.92044797      -4.81676000
C       -6.29150985       1.41230355      -5.46968132
C       -6.03275189       0.04113831      -5.42762331
C       -6.89458214      -0.83013464      -4.73448101
C       -8.01510510      -0.28798106      -4.07692491
C       -8.27089892       1.08365496      -4.12231135
C       -6.59891670      -2.31840107      -4.59922444
H       -7.50799464      -2.88656485      -4.36513839
C       -5.59058747      -2.52308009      -3.51607592
C       -4.45002231      -3.05421892      -3.95467578
N       -3.26057258      -3.35682332      -3.34520108
C       -2.49073905      -2.48935480      -2.53747735
C       -2.86169808      -1.17319758      -2.23073765
C       -2.05897020      -0.36819615      -1.41508278
C       -0.88139267      -0.88139267      -0.88139267
C       -0.50433319      -2.19341017      -1.14903138
C       -1.31031810      -2.99158978      -1.96707216
C       -4.67161486      -3.37805903      -5.39706614
O       -3.81388265      -3.94316616      -6.05638218
N       -5.95135994      -2.93667849      -5.74201385
C       -6.59364787      -3.13932643      -7.00007533
C       -5.92579408      -3.73492137      -8.08102009
C       -6.56139307      -3.94170019      -9.31281715
C       -7.88206205      -3.54967738      -9.48426261
C       -8.56958975      -2.95350656      -8.43484751
C       -7.92923054      -2.75276402      -7.20432036
H       -5.62604448       2.08567025      -6.00088665
H       -5.14709179      -0.33967205      -5.93371504
H       -8.69059926      -0.92981313      -3.51429586
H       -9.13159586       1.50636272      -3.61346099
H       -5.76299773      -2.22857206      -2.49074362
H       -2.66169792      -3.90249511      -3.97135697
H       -3.76252623      -0.73148001      -2.64433226
H       -2.36187426       0.65549245      -1.21168129
H        0.40919399      -2.60600385      -0.72979776
H       -1.00785565      -4.01884364      -2.15867563
H       -4.89121010      -4.05636099      -8.00854147
H       -6.00867200      -4.40887292     -10.12408371
H       -9.60314118      -2.63986920      -8.55764524
H       -8.51717707      -2.28725399      -6.42011186
C       -8.53892378      -3.76241137     -10.74793856
C       -9.08904548      -3.94057609     -11.80626717
Br      -9.97854575      -4.22865337     -13.51749502
F        0.27833492      -0.07478969       9.61234911
C       -0.67418722       0.63488384       8.99391647
C       -0.32304832       1.76237937       8.26345993
C       -1.31380556       2.49645606       7.60897526
C       -2.66451956       2.10698326       7.68769497
C       -2.99230971       0.95702223       8.43067913
C       -1.99865484       0.22631527       9.08458519
C       -3.76019280       2.83595486       6.92039456
H       -4.74769837       2.65058403       7.36141547
C       -3.75483634       2.37580155       5.49910559
C       -3.47585890       3.34957547       4.63348264
N       -3.31212773       3.37722450       3.27324475
C       -2.47515564       2.52779773       2.51461783
C       -1.69307821       1.50485097       3.06770414
C       -0.89251468       0.69054049       2.25919396
C       -0.88139267       0.88139267       0.88139267
C       -1.66916695       1.87256632       0.30504146
C       -2.46511584       2.68437324       1.11949095
C       -3.40221178       4.60857811       5.43595015
O       -3.22426982       5.69014496       4.89901621
N       -3.58101983       4.26968024       6.77935221
C       -3.67760637       5.18878002       7.86666324
C       -3.48906829       6.56745110       7.68521615
C       -3.59376418       7.46947841       8.75266782
C       -3.88667246       7.00253167      10.02679790
C       -4.07485823       5.64295100      10.24013459
C       -3.97225677       4.74645137       9.16760678
H        0.71916309       2.05956940       8.20085458
H       -1.02040619       3.37042976       7.02964292
H       -4.02380610       0.61552348       8.49537867
H       -2.24654010      -0.66318225       9.65533629
H       -3.92078524       1.34645578       5.21507237
H       -3.25862819       4.34213942       2.93478240
H       -1.66025129       1.33850698       4.13958023
H       -0.28055258      -0.08112890       2.71863941
H       -1.67384248       2.02367310      -0.77090796
H       -3.08383081       3.44816484       0.65337927
H       -3.25205573       6.99038291       6.71367391
H       -3.44272257       8.53024764       8.56865843
H       -4.30208153       5.26489908      11.23367500
H       -4.13394104       3.69747062       9.39313126
C       -3.99698065       7.92671662      11.12557645
C       -4.08936376       8.70072151      12.04580348
Br      -4.23873943       9.95222195      13.53373276
F       -3.42596663      -6.72077204       5.96441909
C       -2.11970959      -6.42729855       5.99539856
C       -1.31777643      -6.75611356       4.91055049
C        0.04181227      -6.44045652       4.93696810
C        0.60692060      -5.79747828       6.05479891
C       -0.22967803      -5.47079477       7.13889431
C       -1.58858272      -5.78916349       7.10897454
C        2.06741724      -5.36532350       6.08380147
H        2.42206623      -5.22496966       7.11266198
C        2.21704386      -4.08641000       5.32628962
C        3.00320276      -4.19927630       4.25643796
N        3.37026845      -3.32665581       3.26567272
C        2.49859388      -2.53614940       2.48282792
C        1.10524028      -2.52768586       2.63270717
C        0.29777182      -1.71283244       1.83164487
C        0.88139267      -0.88139267       0.88139267
C        2.26405041      -0.85153213       0.73119220
C        3.06486086      -1.67044770       1.53367147
C        3.56376397      -5.58436033       4.29861573
O        4.37994876      -5.96068258       3.47279965
N        2.99574872      -6.24169193       5.39261163
C        3.33413368      -7.55113149       5.84778445
C        4.23168992      -8.36742674       5.14261888
C        4.56999562      -9.64948445       5.59643033
C        4.00888176     -10.13906568       6.76805460
C        3.11375494      -9.35721546       7.48697342
C        2.78231258      -8.07446258       7.02953977
H       -1.75550486      -7.24881750       4.04794825
H        0.65425521      -6.69327771       4.07294595
H        0.16974451      -4.95483862       8.01012512
H       -2.23799249      -5.53561301       7.94107361
H        1.70247588      -3.17721881       5.60261872
H        4.11883442      -3.72501227       2.69170332
H        0.61233133      -3.17690682       3.34910035
H       -0.78138996      -1.74308414       1.95636891
H        2.72977028      -0.19912186      -0.00228452
H        4.14507658      -1.62829446       1.41200387
H        4.69727620      -8.04132809       4.21750826
H        5.27153934     -10.24870397       5.02138532
H        2.66577758      -9.73048168       8.40439636
H        2.08194116      -7.50805817       7.63454359
C        4.35573977     -11.45515111       7.23838283
C        4.64623336     -12.55737267       7.63228271
Br       5.11593693     -14.33957170       8.26918552
