173
Properties=species:S:1:pos:R:3 pbc="F F F"
C        0.00000000       0.00000000       0.00000000
C        0.88163567       0.88163567      -0.88163567
C        0.60599760       1.00119670      -2.24066585
C        1.40728528       1.81789147      -3.04608553
C        2.50349900       2.51290281      -2.50742539
C        2.76650207       2.36553681      -1.13011375
C        1.95595695       1.56369543      -0.32119849
C        3.37867457       3.38874004      -3.41279872
H        2.92100236       3.54538622      -4.39641080
N        4.71202072       2.81714849      -3.57105592
C        5.02328989       1.73286593      -4.44168919
C        6.28557993       1.12051517      -4.42183585
C        6.62221892       0.10545165      -5.32698969
C        5.69534787      -0.31373438      -6.27188148
Br       6.15702657      -1.65392251      -7.51979366
C        4.43111013       0.26089037      -6.30494080
C        4.09821541       1.27075871      -5.39175907
C        5.63963936       3.55691406      -2.84656117
O        6.83249687       3.40360109      -2.64299295
C        4.95727204       4.78673516      -2.38191603
C        3.69301170       4.73458048      -2.80782705
C        2.61330472       5.74639619      -2.76631693
O        1.45990109       5.41016078      -3.02500143
C        2.88174233       7.17417547      -2.46826223
C        1.92658246       7.87640004      -1.72103467
C        2.10660626       9.23305865      -1.44449504
C        3.23656144       9.89664097      -1.91974486
C        4.17495532       9.21175785      -2.69062045
C        3.98938779       7.85774957      -2.98194519
O        5.62217845       5.77303062      -1.71884866
H       -0.23289860       0.46962692      -2.68228880
H        1.15647161       1.90987406      -4.10016065
H        3.60119027       2.87918570      -0.65867877
H        2.17280902       1.48092284       0.74079639
H        7.04515107       1.40480098      -3.69930861
H        7.61313160      -0.33927781      -5.28328428
H        3.69906561      -0.05534758      -7.04387416
H        3.10775360       1.70089725      -5.48619964
H        1.03487264       7.36885152      -1.35814122
H        1.36268237       9.77190185      -0.86309556
H        3.38028590      10.95159764      -1.69906928
H        5.04988268       9.73381514      -3.07052236
H        4.71885236       7.35654076      -3.61109068
H        6.54519447       5.45210605      -1.63108353
C       -0.88163567      -0.88163567      -0.88163567
C       -2.26745666      -0.78754920      -0.79285429
C       -3.07497336      -1.58752096      -1.60876796
C       -2.50868052      -2.50289363      -2.51225306
C       -1.10254119      -2.58541851      -2.57419294
C       -0.29482301      -1.77403079      -1.77199707
C       -3.41361370      -3.38224087      -3.38435877
H       -4.45829367      -3.05189160      -3.35261411
N       -3.32432561      -4.78473787      -2.99116165
C       -3.98852460      -5.34669776      -1.86262266
C       -3.72728383      -6.65932863      -1.44131848
C       -4.43201768      -7.24254571      -0.38009687
C       -5.41535581      -6.51676331       0.27862415
Br      -6.39559982      -7.31113685       1.68383895
C       -5.68449575      -5.20872630      -0.10371925
C       -4.97068287      -4.62869664      -1.16135369
C       -2.60255160      -5.50280646      -3.93775653
O       -2.23404624      -6.66481049      -3.98023418
C       -2.40338146      -4.61555574      -5.10698603
C       -2.97015942      -3.44003564      -4.82522417
C       -3.20489168      -2.24891335      -5.67221281
O       -3.55372991      -1.19373300      -5.14760039
C       -3.08012839      -2.29475323      -7.14929841
C       -2.56266111      -1.16471854      -7.79663752
C       -2.45990703      -1.13549722      -9.18875570
C       -2.88103407      -2.23069007      -9.94122313
C       -3.42623943      -3.34544942      -9.30564476
C       -3.54457368      -3.37098083      -7.91352804
O       -1.80903376      -5.05383547      -6.25118850
H       -2.72974887      -0.09114919      -0.09811906
H       -4.15428304      -1.47826654      -1.53395673
H       -0.60895778      -3.27569352      -3.25440344
H        0.78678591      -1.84767346      -1.85204792
H       -2.96399151      -7.26870195      -1.91656719
H       -4.20438353      -8.26458469      -0.08816985
H       -6.45601337      -4.63264009       0.40106126
H       -5.24604553      -3.61604365      -1.43276131
H       -2.24453482      -0.30016736      -7.21716321
H       -2.05630719      -0.25644938      -9.68492320
H       -2.79513592      -2.21084306     -11.02497384
H       -3.76518457      -4.19412285      -9.89491276
H       -4.00215798      -4.23791356      -7.44641227
H       -1.56391891      -5.98772080      -6.07674433
C       -0.88163567       0.88163567       0.88163567
C       -1.74964932       1.80000298       0.29820786
C       -2.56543299       2.59983717       1.10599212
C       -2.51305579       2.50374305       2.50702837
C       -1.61733749       1.57290080       3.07191434
C       -0.81462577       0.76096723       2.26525786
C       -3.40401099       3.40303629       3.37316606
H       -4.16884332       3.91560255       2.77835352
N       -2.60971371       4.38110031       4.10941112
C       -2.07934471       5.57602697       3.54247333
C       -1.18434296       6.38740432       4.25618367
C       -0.71928265       7.60146262       3.73391498
C       -1.14637383       8.02465635       2.48246479
Br      -0.55368981       9.67882727       1.79038063
C       -2.01826096       7.23464085       1.74403949
C       -2.47392149       6.01761922       2.26919249
C       -2.55188116       4.03631185       5.45492158
O       -1.95540693       4.52219486       6.40148913
C       -3.51962793       2.93585774       5.67043756
C       -4.08502640       2.65677903       4.49361380
C       -5.21413311       1.76418621       4.14769852
O       -5.43188003       1.49454978       2.96863350
C       -6.13035263       1.21653328       5.17729412
C       -6.61513011      -0.08551960       4.99440667
C       -7.51236723      -0.63841022       5.91020294
C       -7.93612138       0.10894742       7.00787847
C       -7.48245484       1.41620077       7.17867801
C       -6.59653789       1.97737864       6.25516602
O       -3.77291266       2.43139320       6.90975188
H       -1.80481907       1.89713147      -0.78293342
H       -3.24955883       3.29366876       0.62327873
H       -1.53398725       1.45519717       4.14987032
H       -0.14445963       0.04075123       2.72772461
H       -0.81278803       6.10071367       5.23575895
H       -0.03147273       8.20458939       4.32107594
H       -2.36382020       7.55836041       0.76541158
H       -3.17545503       5.46011346       1.65928201
H       -6.29984268      -0.67051559       4.13253829
H       -7.88371598      -1.64953778       5.76350158
H       -8.62982135      -0.32364040       7.72477186
H       -7.82322444       2.00192014       8.02907560
H       -6.28409626       3.00798323       6.39440432
H       -3.18364874       2.92632787       7.51840744
C        0.88163567      -0.88163567       0.88163567
C        0.33437919      -1.52638456       1.98709641
C        1.13993968      -2.34304054       2.78828207
C        2.50575671      -2.51336254       2.50470796
C        3.03656468      -1.84030369       1.38528427
C        2.22860900      -1.03819794       0.57404393
C        3.37362940      -3.39953131       3.40705262
H        2.76798675      -3.99402208       4.10079056
N        4.34432245      -2.60411118       4.15179151
C        4.03574002      -1.84470618       5.31739882
C        4.97250229      -0.96880487       5.88662379
C        4.70210090      -0.27761044       7.07494892
C        3.48320395      -0.45455489       7.71573613
Br       3.12859842       0.44413467       9.33843396
C        2.52839984      -1.30133907       7.16720239
C        2.80240418      -1.98413398       5.97419503
C        5.61927992      -2.79302148       3.63081319
O        6.69701238      -2.28670622       3.89537231
C        5.54080679      -3.91645100       2.66866544
C        4.27227199      -4.33112137       2.63202586
C        3.65357977      -5.50195254       1.97048553
O        2.42930893      -5.57427591       1.89147847
C        4.46234138      -6.62480051       1.43703814
C        4.02581169      -7.24142685       0.25677863
C        4.72469817      -8.32935256      -0.26989078
C        5.85739295      -8.81180676       0.38374756
C        6.27881835      -8.22319825       1.57531702
C        5.57213904      -7.14414317       2.11280034
O        6.64750387      -4.41517089       2.05138297
H       -0.71806517      -1.40643494       2.23064735
H        0.68170960      -2.85166788       3.63312884
H        4.08646601      -1.93481973       1.11776900
H        2.66124321      -0.54365042      -0.29195816
H        5.93807814      -0.78801306       5.42316945
H        5.45686520       0.38709989       7.48737276
H        1.57265078      -1.45199136       7.66295006
H        2.03037351      -2.65298802       5.61148896
H        3.13445829      -6.87947069      -0.25206359
H        4.38178214      -8.80249283      -1.18659520
H        6.40564316      -9.65492200      -0.02961234
H        7.15573328      -8.60832692       2.09015998
H        5.90301420      -6.72510876       3.05836085
H        7.39441218      -3.86429121       2.36968066
