49
Properties=species:S:1:pos:R:3 pbc="F F F"
C        0.00000000       0.00000000       0.00000000
C        0.88501514       0.88501514      -0.88501514
C        0.58057371       2.23545951      -1.00002838
C        1.39048311       3.03387005      -1.80733517
C        2.46877920       2.45415958      -2.46567256
C        2.69716863       1.09783380      -2.29221523
N        1.92761323       0.29906130      -1.51499306
H       -0.26630229       2.66644351      -0.47688528
H        1.17322122       4.09327576      -1.91392829
H        3.52527256       0.59410026      -2.78288501
C        3.32696661       3.24661277      -3.30777250
C        4.04569857       3.91029233      -4.01303119
Br       5.20782735       4.98340603      -5.15337485
C       -0.88501514      -0.88501514      -0.88501514
C       -0.34107215      -2.03774108      -1.43724837
C       -1.15273324      -2.83745813      -2.24149697
C       -2.47106308      -2.45577699      -2.46177128
C       -2.92874880      -1.28882435      -1.86964450
N       -2.16334849      -0.49359898      -1.08472012
H        0.69078543      -2.31608638      -1.25172554
H       -0.75078142      -3.74427600      -2.68536785
H       -3.94964056      -0.94418279      -2.00843448
C       -3.33892482      -3.25595996      -3.28646710
C       -4.06575903      -3.92611320      -3.97714986
Br      -5.24098847      -5.00969431      -5.09392545
C       -0.88501514       0.88501514       0.88501514
C       -2.04324058       0.34413634       1.42868469
C       -2.84317259       1.15591720       2.23259854
C       -2.45621451       2.47130685       2.46108999
C       -1.28385122       2.92597789       1.87738855
N       -0.48831670       2.16040533       1.09294556
H       -2.32570327      -0.68542712       1.23675034
H       -3.75444831       0.75644920       2.66952776
H       -0.93489675       3.94446659       2.02289449
C       -3.25664475       3.33930637       3.28540076
C       -3.92700508       4.06625596       3.97576104
Br      -5.01092104       5.24167198       5.09201521
C        0.88501514      -0.88501514       0.88501514
C        2.04926779      -0.34761563       1.41917819
C        2.84915607      -1.15937392       2.22315834
C        2.45615770      -2.47127920       2.46117445
C        1.27802383      -2.92261756       1.88657627
N        0.48238445      -2.15698223       1.10230091
H        2.33638548       0.67926203       1.21990304
H        3.76507992      -0.76259139       2.65275396
H        0.92421789      -3.93830688       2.03973306
C        3.25634513      -3.33914347       3.28586329
C        3.92650209      -4.06597980       3.97654020
Br       5.01008923      -5.24121266       5.09330634
