41
Properties=species:S:1:pos:R:3 pbc="F F F"
C        0.00000000       0.00000000       0.00000000
C        0.88501514       0.88501514      -0.88501514
C        0.58057371       2.23545951      -1.00002838
C        1.39048311       3.03387005      -1.80733517
C        2.46877920       2.45415958      -2.46567256
Br       3.59166568       3.49103680      -3.56750955
C        2.69716863       1.09783380      -2.29221523
N        1.92761323       0.29906130      -1.51499306
H       -0.26630229       2.66644351      -0.47688528
H        1.17322122       4.09327576      -1.91392829
H        3.52527256       0.59410026      -2.78288501
C       -0.88501514      -0.88501514      -0.88501514
C       -0.33784037      -2.03173173      -1.44648951
C       -1.14952587      -2.83148942      -2.25067304
C       -2.47109539      -2.45582795      -2.46168800
Br      -3.60681282      -3.50312879      -3.54027042
C       -2.93187474      -1.29463050      -1.86071242
N       -2.16652985      -0.49951215      -1.07562560
H        0.69651370      -2.30543731      -1.26810288
H       -0.74508256      -3.73367041      -2.70167230
H       -3.95536827      -0.95482472      -1.99206483
C       -0.88501514       0.88501514       0.88501514
C       -2.04390258       0.34451222       1.42764681
C       -2.84382979       1.15629065       2.23156789
C       -2.45620827       2.47130387       2.46109921
Br      -3.50348809       3.60700978       3.53971415
C       -1.28321117       2.92561486       1.87839162
N       -0.48766513       2.16003552       1.09396694
H       -2.32687655      -0.68476108       1.23491102
H       -3.75561603       0.75711277       2.66769646
H       -0.93372384       3.94380114       2.02473285
C        0.88501514      -0.88501514       0.88501514
C        2.04785262      -0.34678710       1.42142189
C        2.84775117      -1.15855078       2.22538639
C        2.45617104      -2.47128579       2.46115451
Br       3.50324264      -3.60687601       3.54009337
C        1.27939209      -2.92341777       1.88440781
N        0.48377733      -2.15779738       1.10009289
H        2.33387733       0.68073013       1.22387929
H        3.76258366      -0.76112875       2.65671285
H        0.92672525      -3.93977371       2.03575887
