70
Properties=species:S:1:pos:R:3 pbc="F F F"
C        1.79491917       1.79491917      -1.79491917
C        1.49047774       3.14536354      -1.90993241
C        2.30038713       3.94377408      -2.71723920
C        3.37868323       3.36406360      -3.37557659
C        3.60707266       2.00773783      -3.20211925
N        2.83751725       1.20896533      -2.42489709
H        0.64360173       3.57634753      -1.38678930
H        2.08312524       5.00317978      -2.82383231
H        4.43517658       1.50400428      -3.69278904
C        4.23687064       4.15651680      -4.21767652
C        4.95560259       4.82019635      -4.92293522
Br       6.11773138       5.89331006      -6.06327888
C       -1.79491917      -1.79491917      -1.79491917
C       -1.24998894      -2.94583289      -2.34995185
C       -2.06165748      -3.74556219      -3.15418074
C       -3.38097696      -3.36569638      -3.37165008
C       -3.83960772      -2.20047931      -2.77684270
N       -3.07422434      -1.40528621      -1.99186911
H       -0.21736875      -3.22277900      -2.16659081
H       -1.65894457      -4.65098173      -3.60021104
H       -4.86129425      -1.85729606      -2.91337959
C       -4.24887901      -4.16595072      -4.19623423
C       -4.97574697      -4.83616372      -4.88682346
Br      -6.15103099      -5.91984148      -6.00344784
C       -1.79491917       1.79491917       1.79491917
C       -2.95270325       1.25379061       2.33927981
C       -3.75263847       2.06557310       3.14318884
C       -3.36612269       3.38121286       3.37098787
C       -2.19418196       3.83612312       2.78662465
N       -1.39865512       3.07055507       2.00216947
H       -3.23482508       0.22403436       2.14787912
H       -4.66357382       1.66591232       3.58065120
H       -1.84558275       4.85481277       2.93157439
C       -4.16657071       4.24922208       4.19527116
C       -4.83694594       4.97617980       4.88560842
Br      -5.92088597       6.15160896       6.00182538
C        1.79491917      -1.79491917       1.79491917
C        2.95783701      -1.25673798       2.33119869
C        3.75773498      -2.06850135       3.13516408
C        3.36607431      -3.38118944       3.37105966
C        2.18921841      -3.83327653       2.79443479
N        1.39360225      -3.06765530       2.01012211
H        3.24392379      -0.22925692       2.13355786
H        4.67262944      -1.67111550       3.56639240
H        1.83648689      -4.84959477       2.94588824
C        4.16631552      -4.24908411       4.19566433
C        4.83651753      -4.97594589       4.88627075
Br       5.92017749      -6.15121991       6.00292290
C       -0.00445707       0.01189536      -1.78238275
H       -0.66409135       0.67374010      -2.43557963
H        0.65740317      -0.63156657      -2.45157240
C       -0.90989263      -0.90692880      -0.91072765
C        0.90977584       0.90977584      -0.90977584
C       -0.00465871       1.77757030       0.00794375
H       -0.66225468       2.44313916      -0.64384735
H        0.64322798       2.43503045       0.67728295
C       -1.78241447       0.00034974      -0.00472694
H       -2.45427497      -0.65498947       0.64260836
H       -2.43311707       0.67328779      -0.65473579
C       -0.91132561       0.90220522       0.91563759
C       -0.01476271      -0.02253852       1.78660255
H       -0.67934791      -0.69751639       2.42135241
H        0.63392994       0.61504881       2.47327442
C        0.01484550      -1.77751727      -0.01636693
H        0.67870853      -2.42144646      -0.68295456
H       -0.62264859      -2.45592969       0.64226336
C        1.78714474       0.01002794       0.00389507
H        2.44202412       0.67113390       0.66197326
H        2.45385902      -0.65136977      -0.64189061
C        0.91606151      -0.90478549       0.90901405
