177
Properties=species:S:1:pos:R:3 pbc="F F F"
C        0.00000000       0.00000000       0.00000000
C        0.88111999       0.88111999      -0.88111999
C        2.11943279       0.41410288      -1.30740037
C        2.92462443       1.21941888      -2.12082100
C        2.50343909       2.49053688      -2.52882778
C        1.25742466       2.94643499      -2.06721510
C        0.44483065       2.14701468      -1.25611056
N        3.28060992       3.36304485      -3.31296547
C        4.54863211       3.19114509      -3.80021407
C        5.65465556       2.60746466      -3.33915137
C        6.82354434       2.72263855      -4.26677151
H        7.11579461       1.70874475      -4.56612063
N        6.23463146       3.39919263      -5.41048513
C        6.88261363       3.52020349      -6.67657735
C        6.28257752       4.19192215      -7.75207924
C        6.90867144       4.28187617      -9.00360928
C        8.15491160       3.70187087      -9.19879868
C        8.77527682       3.02958619      -8.15519869
C        8.13952753       2.93745342      -6.91003320
C        4.91874641       3.77100206      -5.13148374
O        4.10716830       4.40595243      -5.79146140
C        7.96637102       3.47552216      -3.61296586
C        7.81612550       4.77686134      -3.10201450
C        8.89050008       5.43327064      -2.49402900
C       10.13351736       4.80909255      -2.40069160
C       10.29928420       3.52104194      -2.90198091
C        9.21963795       2.86528495      -3.48739034
F        9.40433330       1.62015379      -3.95020803
H        2.46996098      -0.57389209      -1.02124334
H        3.87072584       0.80808917      -2.45389423
H        0.90627111       3.93975106      -2.33904669
H       -0.51869318       2.52395593      -0.92443596
H        2.72031552       3.95907174      -3.92623307
H        5.73608786       2.12785859      -2.37486959
H        5.31084023       4.66692989      -7.65915060
H        6.40612147       4.80584660      -9.81249756
H        9.74787229       2.56426390      -8.29356408
H        8.66195472       2.37370446      -6.14646668
H        6.85842436       5.29052685      -3.16605556
H        8.75573776       6.43621691      -2.09462838
H       10.96995660       5.32632696      -1.93740542
H       11.26178167       3.02274068      -2.84071842
C        8.80082737       3.79042211     -10.48275799
C        9.34178182       3.86458377     -11.55807391
Br      10.21645942       3.98449690     -13.29676881
C       -0.88111999      -0.88111999      -0.88111999
C       -0.61429482      -2.24173423      -0.98490699
C       -1.42622923      -3.05096920      -1.78766589
C       -2.51765253      -2.52000460      -2.48514662
C       -2.75264779      -1.13903601      -2.37939095
C       -1.94779730      -0.32312458      -1.57703402
N       -3.34776739      -3.27127660      -3.33757625
C       -3.26767413      -4.59538531      -3.67693184
C       -2.26328460      -5.44438875      -3.89359824
C       -2.71364069      -6.81804736      -4.28126636
H       -2.36380095      -7.51598215      -3.51087689
N       -4.15911896      -6.69888635      -4.18630391
C       -5.04756238      -7.81570915      -4.21612294
C       -6.43868625      -7.65517273      -4.13271993
C       -7.30664178      -8.75656405      -4.13095107
C       -6.79371109     -10.04378151      -4.21808856
C       -5.42194817     -10.23682081      -4.30129272
C       -4.56105223      -9.13141802      -4.29454390
C       -4.52218059      -5.37765710      -3.92139452
O       -5.62283854      -4.85058949      -3.83115409
C       -2.20437402      -7.18980002      -5.66068501
C       -2.48126540      -6.41369790      -6.80003803
C       -1.98242474      -6.78230610      -8.05306887
C       -1.21432255      -7.93739713      -8.19158183
C       -0.93139874      -8.71721697      -7.07369135
C       -1.41385665      -8.33293003      -5.82552655
F       -1.11515799      -9.09582080      -4.76371632
H        0.21601331      -2.68859661      -0.44472893
H       -1.20132296      -4.11096059      -1.82042569
H       -3.57415698      -0.68292203      -2.92798985
H       -2.16214665       0.73973004      -1.50728210
H       -4.31382479      -2.93704158      -3.35475396
H       -1.21742749      -5.17988645      -3.84150209
H       -6.89804303      -6.67387394      -4.06500376
H       -8.37800302      -8.58842659      -4.05803603
H       -5.00402112     -11.23837104      -4.36330811
H       -3.50063701      -9.35042140      -4.33106745
H       -3.08291803      -5.50974993      -6.72233879
H       -2.19711223      -6.16598000      -8.92349082
H       -0.83719199      -8.22745010      -9.16904690
H       -0.33814595      -9.62170656      -7.16538825
C       -7.68119687     -11.17778310      -4.21502749
C       -8.42446621     -12.12750944      -4.21246385
Br      -9.62626988     -13.66313660      -4.20831866
C       -0.88111999       0.88111999       0.88111999
C       -0.55124525       2.21837316       1.07131762
C       -1.36282435       3.02808327       1.87395670
C       -2.51578636       2.52165515       2.48536224
C       -2.81485041       1.16249392       2.29373042
C       -2.01069771       0.34648576       1.49077243
N       -3.35111906       3.27200614       3.33349504
C       -3.22197942       4.57087732       3.74713453
C       -2.18870929       5.35254751       4.06001479
C       -2.58863198       6.72686627       4.49745616
H       -2.16278899       7.44336155       3.78450945
N       -4.03111371       6.69052636       4.32266914
C       -4.86178889       7.85049074       4.36711483
C       -6.25279560       7.76937980       4.20440351
C       -7.06212883       8.91446465       4.21756342
C       -6.48967138      10.16615017       4.39975961
C       -5.11630492      10.28072498       4.56303180
C       -4.31375880       9.13245311       4.54080223
C       -4.44629726       5.40593326       3.96900169
O       -5.56595243       4.94404193       3.79458777
C       -2.13591784       6.99992315       5.91901806
C       -2.51281864       6.18274824       6.99943446
C       -2.06387244       6.45967206       8.29425521
C       -1.24643935       7.56326691       8.53359525
C       -0.86448616       8.38273121       7.47508969
C       -1.29815525       8.08904355       6.18511444
F       -0.90434621       8.88791910       5.18242981
H        0.32858096       2.64693892       0.59895426
H       -1.08626209       4.07141169       1.97503547
H       -3.68682583       0.72380002       2.77444301
H       -2.27489073      -0.69837947       1.35318745
H       -4.33248422       2.98971127       3.28342484
H       -1.15640855       5.03524224       4.04716524
H       -6.75727527       6.81890482       4.06074063
H       -8.13520188       8.80806081       4.08120295
H       -4.65180264      11.25391205       4.69998558
H       -3.24705381       9.29202631       4.64304575
H       -3.15472413       5.31756490       6.84271774
H       -2.35614816       5.81220161       9.11823329
H       -0.90806963       7.78243673       9.54318262
H       -0.23168183       9.24819240       7.64536654
C       -7.31674948      11.34487081       4.41238718
C       -8.00942740      12.33204934       4.42296276
Br      -9.12942900      13.92823355       4.44006258
C        0.88111999      -0.88111999       0.88111999
C        2.13775832      -0.43185414       1.27132357
C        2.94312320      -1.23699793       2.08474318
C        2.50425153      -2.49001150       2.52854072
C        1.23939264      -2.92873793       2.10294418
C        0.42655485      -2.12928057       1.29212047
N        3.27957667      -3.36233107       3.31471249
C        4.56103974      -3.20740991       3.77154163
C        5.66892760      -2.65727026       3.27507373
C        6.85470570      -2.77796301       4.18028570
H        7.17443354      -1.76450486       4.45172158
N        6.27634119      -3.41770277       5.35026526
C        6.94855610      -3.52601781       6.60482056
C        6.35771692      -4.16211369       7.70674829
C        7.00839195      -4.23922273       8.94654222
C        8.27037991      -3.68202327       9.10317797
C        8.88223262      -3.04512861       8.03270047
C        8.22208813      -2.96550233       6.79942369
C        4.94730425      -3.76706470       5.10686326
O        4.13690788      -4.37058164       5.79709261
C        7.96729944      -3.56860843       3.51895117
C        7.77897760      -4.87684473       3.03917901
C        8.82614729      -5.56863768       2.42301474
C       10.07967263      -4.97325262       2.29037626
C       10.28302438      -3.67883275       2.76044993
C        9.23008932      -2.98805148       3.35417245
F        9.45064112      -1.73774119       3.78631281
H        2.50268493       0.54222206       0.95684935
H        3.90452412      -0.83910052       2.38908461
H        0.87342352      -3.90841920       2.40322615
H       -0.55151136      -2.49240336       0.98880671
H        2.72016785      -3.93328866       3.95216382
H        5.73975229      -2.19979253       2.29927121
H        5.37449087      -4.61808879       7.64434107
H        6.51238929      -4.73529740       9.77677894
H        9.86708476      -2.59790238       8.14071313
H        8.73975978      -2.42914348       6.01322261
H        6.81232681      -5.36847627       3.13420368
H        8.66192807      -6.57661163       2.04804336
H       10.89501707      -5.51782140       1.82085052
H       11.25420728      -3.20260294       2.66843054
C        8.94159022      -3.75747526      10.37494199
C        9.50372884      -3.82066630      11.44004436
Br      10.41265946      -3.92284086      13.16222480
