173
Properties=species:S:1:pos:R:3 pbc="F F F"
C        0.00000000       0.00000000       0.00000000
F        3.38817436       8.22707228       0.58579411
C        3.29569429       7.39963442      -0.46286287
C        2.07657206       7.24678600      -1.10886359
C        1.97427120       6.38012210      -2.20101521
C        3.09462127       5.65699665      -2.65551113
C        4.31913572       5.83474551      -1.97804993
C        4.41786355       6.70410870      -0.88898257
C        2.95601834       4.66765103      -3.81749459
H        1.93876259       4.65557764      -4.22571627
N        3.31653426       3.31982501      -3.38376095
C        2.50891117       2.50969206      -2.52716916
C        2.95246771       1.26303333      -2.05922788
C        2.14982091       0.45340781      -1.24389388
C        0.88067164       0.88067164      -0.88067164
C        0.41062664       2.10869575      -1.32701620
C        1.21820157       2.91118562      -2.14519823
C        4.55299853       2.94684248      -3.92549885
O        5.25544406       1.97958707      -3.69336688
C        4.87740393       3.95069192      -4.96960998
C        3.93400678       4.90045555      -4.93084493
C        3.86125933       5.86685674      -6.04706821
O        4.62688115       5.76258588      -7.00626133
C        2.82973350       6.91641552      -6.10410495
C        2.70960106       7.87600329      -5.09927985
C        1.75454965       8.89008412      -5.21438791
C        0.95919419       8.96965106      -6.35740153
Br      -0.31153935      10.35834970      -6.51866289
C        1.11239489       8.04688526      -7.39060340
C        2.05156202       7.02026184      -7.26532530
O        5.89527302       3.78771243      -5.87143714
H        1.21104610       7.79683811      -0.75099091
H        1.00679600       6.27312120      -2.68764535
H        5.21047528       5.28196096      -2.27200464
H        5.35954890       6.82971747      -0.36361432
H        3.93558821       0.87344705      -2.30632200
H        2.53375769      -0.50624243      -0.90669090
H       -0.58369430       2.45189156      -1.05324688
H        0.78503343       3.84520455      -2.48057860
H        3.37595520       7.87875501      -4.24230836
H        1.65933974       9.62862336      -4.42115106
H        0.52166214       8.12827568      -8.29985041
H        2.19058810       6.31925010      -8.08640668
H        5.79446523       4.48224976      -6.55914693
F       -1.70721499      -8.73180416      -0.59043337
C       -1.98385291      -7.73443124      -1.43990743
C       -0.97458075      -7.21722797      -2.24041293
C       -1.25778761      -6.17250102      -3.12511989
C       -2.55704272      -5.63532201      -3.21476432
C       -3.56051999      -6.18307517      -2.38833599
C       -3.27406118      -7.22910671      -1.50778693
C       -2.84140546      -4.45279654      -4.14696196
H       -1.95152258      -4.15498736      -4.71354656
N       -3.33019586      -3.30803439      -3.38188997
C       -2.51264108      -2.50649417      -2.52663714
C       -3.05650413      -1.48255148      -1.73567331
C       -2.25238224      -0.67539394      -0.91934641
C       -0.88067164      -0.88067164      -0.88067164
C       -0.30999299      -1.88483095      -1.65151466
C       -1.12069589      -2.68567453      -2.46821500
C       -4.69884478      -3.11706961      -3.60942548
O       -5.49315103      -2.37575141      -3.05949557
C       -5.05772471      -3.97008753      -4.76989359
C       -3.97735312      -4.69057513      -5.09737901
C       -3.97601387      -5.41098103      -6.38818938
O       -4.93355747      -5.30634708      -7.15582381
C       -2.81384573      -6.19217124      -6.84423700
C       -2.31906532      -7.26402888      -6.10179001
C       -1.24890105      -8.01721029      -6.59291034
C       -0.71210526      -7.72702145      -7.84712007
Br       0.71691519      -8.76567092      -8.51671751
C       -1.23830936      -6.69265647      -8.61891772
C       -2.29321927      -5.92581331      -8.11811657
O       -6.25592318      -3.87234461      -5.42615480
H        0.02909578      -7.62512722      -2.16284368
H       -0.44885534      -5.78032390      -3.73838331
H       -4.57596622      -5.78910367      -2.39937099
H       -4.04675858      -7.64044269      -0.86567941
H       -4.12198734      -1.27310712      -1.72026280
H       -2.71678062       0.10780965      -0.32523518
H        0.76386078      -2.05191401      -1.63339091
H       -0.61300808      -3.43411923      -3.06368926
H       -2.77806136      -7.55644834      -5.16250887
H       -0.86124229      -8.84502444      -6.00284743
H       -0.84851365      -6.48810460      -9.61316998
H       -2.72240402      -5.13853819      -8.73530267
H       -6.18404738      -4.39968371      -6.25213083
F       -1.96113116       0.37818084       8.69014052
C       -2.55045494       0.96627585       7.64146079
C       -3.38806463       0.22294367       6.82121335
C       -4.00147249       0.83163041       5.72230562
C       -3.77963051       2.19278390       5.43471464
C       -2.92363766       2.92071598       6.28757752
C       -2.31502300       2.30946208       7.38646974
C       -4.41265860       2.83352667       4.19497869
H       -5.04638960       2.12649839       3.64716851
N       -3.37606254       3.34354929       3.30050839
C       -2.52503147       2.51627982       2.50446110
C       -1.47757287       3.05552687       1.74162919
C       -0.66104952       2.24956653       0.93650654
C       -0.88067164       0.88067164       0.88067164
C       -1.90913783       0.31476425       1.62243651
C       -2.72377611       1.12817496       2.42263436
C       -3.34261659       4.74311802       3.33960525
O       -2.54260536       5.52590325       2.85988940
C       -4.57204143       5.17588391       4.04978050
C       -5.19806208       4.07696913       4.49027605
C       -6.58580547       4.20662341       4.98275540
O       -7.15737382       5.29690064       4.94145391
C       -7.36092312       3.04326327       5.44606758
C       -6.92412822       2.25234528       6.50841071
C       -7.71327250       1.18924026       6.95650893
C       -8.95849323       0.95383426       6.37391929
Br     -10.03187760      -0.46836798       7.00196361
C       -9.42585759       1.77481698       5.34920898
C       -8.62716144       2.82347437       4.88651334
O       -4.99876674       6.47703170       4.07862415
H       -3.55003374      -0.82900716       7.03784854
H       -4.64961178       0.22690473       5.09104605
H       -2.69798805       3.96920257       6.09725026
H       -1.64834309       2.87055276       8.03398484
H       -1.25343995       4.11812682       1.74379049
H        0.13728612       2.71099460       0.36049767
H       -2.09405774      -0.75558828       1.58297467
H       -3.52370371       0.63059287       2.95652000
H       -5.99680077       2.47191382       7.02830398
H       -7.36066904       0.56987406       7.77857106
H      -10.41215007       1.61877540       4.91886275
H       -9.00714981       3.48178451       4.10731057
H       -5.91067798       6.48064462       4.44453932
F        2.08462943      -0.27974005       8.66508304
C        2.64956571      -0.89188250       7.61674337
C        3.48568351      -0.17323485       6.77330329
C        4.07364791      -0.80706075       5.67469985
C        3.82758670      -2.16883315       5.41070920
C        2.97380180      -2.87133135       6.28679800
C        2.39066700      -2.23501049       7.38527733
C        4.43259815      -2.83706788       4.17149794
H        5.06840809      -2.14767888       3.60396953
N        3.37541413      -3.34466560       3.30004049
C        2.52485346      -2.51658372       2.50433521
C        1.45834159      -3.05130508       1.76508225
C        0.64183304      -2.24517506       0.96011448
C        0.88067164      -0.88067164       0.88067164
C        1.92827276      -0.31932208       1.59874376
C        2.74271390      -1.13294505       2.39892648
C        3.32201127      -4.74285582       3.36047278
O        2.50353561      -5.52059257       2.90426983
C        4.55539508      -5.18341899       4.05889175
C        5.20397489      -4.08760527       4.47372710
C        6.59684897      -4.23067797       4.94765734
O        7.15167077      -5.32983912       4.91421847
C        7.39577922      -3.07231949       5.38215527
C        6.98651963      -2.25947045       6.43889412
C        7.79777494      -1.20177750       6.85946924
C        9.03749885      -0.99352913       6.25521880
Br      10.14088501       0.42158917       6.84617740
C        9.47744055      -1.83633930       5.23610370
C        8.65663007      -2.87965977       4.80085931
O        4.96335493      -6.49021669       4.10085097
H        3.66628842       0.87925294       6.97183964
H        4.72111776      -0.22139175       5.02505305
H        2.72997316      -3.91902062       6.11544710
H        1.72554340      -2.77653914       8.05079815
H        1.21869012      -4.11030134       1.78636580
H       -0.17168435      -2.70306359       0.40282691
H        2.12827785       0.74746172       1.54062800
H        3.55772604      -0.63955254       2.91353799
H        6.06391781      -2.45754174       6.97555902
H        7.46658978      -0.56522466       7.67729972
H       10.45939609      -1.70134501       4.78904713
H        9.01526101      -3.55492684       4.02605703
H        5.88046559      -6.50204399       4.45335234
