189
Properties=species:S:1:pos:R:3 pbc="F F F"
C        0.00000000       0.00000000       0.00000000
C        0.88164127       0.88164127      -0.88164127
C        0.82176466       0.75574684      -2.26791239
C        1.63622644       1.55899333      -3.07237799
C        2.51917594       2.48413580      -2.49315598
C        2.54664763       2.61906064      -1.09785132
C        1.73685301       1.81091972      -0.29320845
C        3.36723203       3.31576835      -3.40053157
O        2.87257118       3.64125659      -4.48176289
C        4.71584594       3.68677327      -3.01401519
O        5.24094003       3.21196309      -1.84968105
C        6.49644410       3.70727386      -1.72245394
N        7.23662245       3.44750732      -0.63739456
C        8.47051305       3.98744596      -0.66359468
C        9.29312044       3.67735204       0.56442258
C       10.52012478       4.56389413       0.72067063
C       11.28189841       4.60667988      -0.59323450
C       10.41873415       5.24547130      -1.68015316
C        8.99647571       4.72231032      -1.74069416
C        8.16255167       4.99602520      -2.86407084
C        8.61738419       5.75399182      -4.04291608
C        8.66786727       5.15019867      -5.31263419
C        9.10958230       5.85673594      -6.43590201
C        9.53499693       7.17400306      -6.29752609
Br      10.15657534       8.12532496      -7.80731036
C        9.50431494       7.79474968      -5.05242899
C        9.03462721       7.09215075      -3.93716959
C        6.84396145       4.46924323      -2.83247384
C        5.66551790       4.47511315      -3.64248053
N        5.47707698       5.12033809      -4.81151944
H        0.14854735       0.03970043      -2.73234419
H        1.58301196       1.45638037      -4.15502905
H        3.18720146       3.35151362      -0.61325875
H        1.78219643       1.91776193       0.78800080
H        8.66441884       3.77605421       1.45778337
H        9.60604959       2.62756628       0.50175667
H       10.21968244       5.57850772       1.01115569
H       11.15904932       4.17446051       1.52071322
H       11.56586175       3.58893419      -0.88976587
H       12.20936734       5.17793909      -0.47559093
H       10.92031953       5.08784732      -2.64176645
H       10.37616269       6.32457400      -1.48991756
H        8.34484596       4.11677125      -5.43766587
H        9.12011255       5.36708555      -7.40602726
H        9.84127191       8.82155032      -4.93570059
H        9.00456935       7.60036262      -2.97554979
H        6.09909361       5.85225629      -5.14313950
H        4.56211116       5.11737545      -5.26683202
C       -0.88164127      -0.88164127      -0.88164127
C       -0.31270298      -1.92766048      -1.60506043
C       -1.12147713      -2.72832451      -2.41779612
C       -2.49975915      -2.48017799      -2.51653058
C       -3.06159071      -1.44203431      -1.75993458
C       -2.25147253      -0.63717517      -0.95233348
C       -3.31611541      -3.36636571      -3.40105082
O       -2.97038953      -4.54714373      -3.47805741
C       -4.44191195      -2.83092035      -4.14380211
O       -4.71216044      -1.49624988      -4.09417386
C       -5.80498230      -1.26028754      -4.86090205
N       -6.33319929      -0.03355524      -4.95476980
C       -7.40134448       0.05102728      -5.77123649
C       -7.97849712       1.44310414      -5.87065693
C       -9.37406206       1.48668789      -6.47597411
C       -9.39423241       0.66846325      -7.75604363
C       -9.09955724      -0.79842804      -7.44637332
C       -7.91792478      -1.01980113      -6.52175428
C       -7.33917733      -2.31373537      -6.36973502
C       -7.80432733      -3.49947671      -7.11048804
C       -6.95344375      -4.16673005      -8.01052633
C       -7.38867388      -5.28566343      -8.72788294
C       -8.69572933      -5.73656773      -8.57422902
Br      -9.29672875      -7.23259720      -9.55988471
C       -9.56264473      -5.09141606      -7.69743282
C       -9.11324273      -3.98971544      -6.96098938
C       -6.23846028      -2.42776269      -5.47945555
C       -5.36582978      -3.44217188      -4.97510992
N       -5.40600472      -4.76401543      -5.23891435
H        0.75379841      -2.12922498      -1.54516541
H       -0.67036034      -3.54502150      -2.97903955
H       -4.13018351      -1.24353886      -1.77825146
H       -2.70131993       0.17366752      -0.38430516
H       -8.00719487       1.89706552      -4.87256033
H       -7.29561944       2.04602590      -6.48226566
H      -10.10777132       1.08595601      -5.76521917
H       -9.65655038       2.52496902      -6.68121525
H       -8.64745394       1.06086976      -8.45797764
H      -10.37098718       0.75316464      -8.24507481
H       -8.93579688      -1.31533065      -8.39880578
H       -9.98840940      -1.23074699      -6.97149786
H       -5.92847752      -3.82258851      -8.14821705
H       -6.70143313      -5.78940526      -9.40238697
H      -10.58710710      -5.43420964      -7.57720607
H       -9.80214148      -3.50863931      -6.26970096
H       -6.20647654      -5.21491322      -5.67309964
H       -4.77740179      -5.41073020      -4.75818664
C       -0.88164127       0.88164127       0.88164127
C       -1.74770310       1.80225096       0.29546983
C       -2.54802878       2.61382570       1.10574327
C       -2.47850463       2.51360989       2.50435320
C       -1.62317185       1.56227427       3.07811348
C       -0.81792770       0.75534293       2.26771055
C       -3.35545134       3.40645617       3.32162444
O       -4.46106311       3.68289831       2.85162925
C       -2.89265610       3.93091113       4.59306717
O       -1.62220900       3.66956822       5.01080695
C       -1.44669946       4.26200866       6.21746378
N       -0.30024456       4.12575139       6.89552838
C       -0.26439621       4.79051282       8.06664466
C        1.03874829       4.63155224       8.81324596
C        0.96491667       5.05524345      10.27302149
C        0.30945163       6.42261199      10.36865244
C       -1.13045449       6.35129915       9.86260497
C       -1.29837225       5.61212854       8.54897941
C       -2.51101215       5.70627275       7.80536282
C       -3.65223311       6.53992805       8.22213092
C       -4.08661418       7.61658097       7.42750498
C       -5.16085432       8.42174714       7.81961879
C       -5.79933136       8.17622052       9.03097420
Br      -7.23503184       9.27657665       9.57760217
C       -5.38609596       7.12351241       9.84188523
C       -4.32915983       6.30358467       9.43120305
C       -2.58019363       4.97675487       6.58873001
C       -3.52001944       4.72146791       5.54162424
N       -4.79435651       5.15486472       5.45971327
H       -1.80893392       1.89732324      -0.78566519
H       -3.22371242       3.32990840       0.64080057
H       -1.57018383       1.42646913       4.15532088
H       -0.14863749       0.03352833       2.72979174
H        1.36280290       3.58498218       8.76051040
H        1.79681316       5.23282913       8.29584323
H        0.38708630       4.32306842      10.85105235
H        1.97244892       5.08321643      10.70202910
H        0.87981088       7.14878864       9.77558406
H        0.31885765       6.77612990      11.40562511
H       -1.50359267       7.37750951       9.76883113
H       -1.73229488       5.83698396      10.62137541
H       -3.59318375       7.82731268       6.47878665
H       -5.48331646       9.23499948       7.17490942
H       -5.87605692       6.92983716      10.79262874
H       -4.03121203       5.47668875      10.07258098
H       -5.29449267       5.54777939       6.25221734
H       -5.40267119       4.84410803       4.69953941
C        0.88164127      -0.88164127       0.88164127
C        2.23859759      -1.01271258       0.59411372
C        3.04178461      -1.82716671       1.39864644
C        2.48908586      -2.51981337       2.48756849
C        1.12801606      -2.35464458       2.78089896
C        0.32350847      -1.54531783       1.97215489
C        3.39351840      -3.37724397       3.31276958
O        4.55601691      -2.99036563       3.44920813
C        2.90805751      -4.61557007       3.89300682
O        1.64128780      -5.03868287       3.62261350
C        1.43760578      -6.20417706       4.28438907
N        0.25207186      -6.82514357       4.24430890
C        0.20768936      -7.98379065       4.93007367
C       -1.13438704      -8.67350881       4.86692814
C       -1.31381584      -9.76324718       5.91391694
C       -0.09914849     -10.67592499       5.90503630
C        1.15014570      -9.89137567       6.30283724
C        1.30332071      -8.55620958       5.59994990
C        2.53892705      -7.84614910       5.63757156
C        3.74576004      -8.35878251       6.30974952
C        4.91479466      -8.63755410       5.57835137
C        6.06180293      -9.13598895       6.20442837
C        6.04477124      -9.38958481       7.57217002
Br       7.58354306     -10.08680963       8.41885797
C        4.89992647      -9.13154615       8.32002098
C        3.76445543      -8.60611712       7.69337500
C        2.58918316      -6.60186455       4.95463080
C        3.52069904      -5.54261720       4.71979533
N        4.77588260      -5.43272116       5.20033075
H        2.68112370      -0.48868562      -0.24921734
H        4.10172211      -1.92365481       1.16904446
H        0.67137548      -2.84207785       3.63852051
H       -0.73358644      -1.44078010       2.20476390
H       -1.93160391      -7.92943896       4.98485462
H       -1.24103536      -9.10788655       3.86500801
H       -1.43755586      -9.31621811       6.90837222
H       -2.22353106     -10.33517463       5.70115303
H        0.03200553     -11.10783309       4.90472319
H       -0.24686672     -11.51081059       6.59895349
H        2.02144092     -10.52545584       6.10303655
H        1.10439570      -9.70395600       7.38230255
H        4.94318444      -8.45126387       4.50483477
H        6.95455937      -9.32453287       5.61413311
H        4.87731201      -9.33336907       9.38784174
H        2.88463233      -8.39732084       8.29852858
H        5.12565412      -6.00552844       5.96330683
H        5.32709605      -4.58911705       5.03010553
