153
Properties=species:S:1:pos:R:3 pbc="F F F"
C        0.00000000       0.00000000       0.00000000
O        9.12940192       4.21444929      -4.72619153
C        8.56019293       5.12968938      -4.12524810
C        7.37025915       5.88223924      -4.70824173
C        6.59524792       5.07764128      -5.75664683
C        5.72054875       3.99716216      -5.11162809
C        4.85690087       3.25052531      -6.12460374
O        5.07625335       3.27270682      -7.34020978
N        3.81616864       2.49364313      -5.63308417
N        3.43974427       2.51452159      -4.26000000
C        2.43718402       1.66539273      -3.98831298
H        1.98347972       0.97746001      -4.69325382
C        1.96192818       1.61870501      -2.64610629
C        2.23574944       2.46424375      -1.57253625
C        1.54108629       1.98501602      -0.44033380
C        0.86855716       0.86855716      -0.86855716
O        1.09470651       0.64658184      -2.18691987
N        9.04953712       5.54295474      -2.90609949
N        8.48936885       6.61639110      -2.15387248
C        9.00493571       6.65861612      -0.91340152
H        9.73389656       5.96055202      -0.51375784
C        8.52020726       7.64826699      -0.01216013
C        7.58592706       8.66115902      -0.20845106
C        7.44489100       9.37631319       1.00140953
C        8.29637658       8.76891527       1.88851439
Br       8.53286788       9.28255511       3.66816276
O        8.95047766       7.73878091       1.29787746
H        7.77282090       6.78706034      -5.18153351
H        6.68247938       6.19744329      -3.91752576
H        7.27524732       4.62995676      -6.48994057
H        5.94572725       5.76652061      -6.31339280
H        5.07579665       4.47527740      -4.36704255
H        6.35111950       3.25821647      -4.60237163
H        3.25381096       1.97236100      -6.28952240
H        2.88950817       3.32519753      -1.63483982
H        1.54627967       2.40329624       0.55425148
H        9.80420663       5.00303426      -2.50814107
H        7.07333190       8.83097814      -1.14597090
H        6.79944480      10.21868716       1.19097818
O       -3.06753715      -6.63607147      -8.36643412
C       -3.78212279      -5.63064960      -8.40235802
C       -5.00108972      -5.45468352      -7.50496689
C       -4.93282229      -6.28041856      -6.21629519
C       -3.97066883      -5.66295357      -5.19571658
C       -3.96318268      -6.40618284      -3.86266441
O       -4.41058259      -7.54993917      -3.72864819
N       -3.39102474      -5.76703203      -2.78483917
N       -2.96118848      -4.41077607      -2.84230132
C       -2.38627744      -4.00435185      -1.70026044
H       -2.19349724      -4.62708470      -0.83361161
C       -1.93702992      -2.65395085      -1.63575870
C       -2.16886443      -1.59360936      -2.51005566
C       -1.48657833      -0.45750734      -2.02235044
C       -0.86855716      -0.86855716      -0.86855716
O       -1.14211981      -2.17198161      -0.61410681
N       -3.51860527      -4.64870117      -9.33128490
N       -4.30809402      -3.47124480      -9.48029359
C       -3.70472061      -2.58331249     -10.28892025
H       -2.73385818      -2.71922322     -10.75512502
C       -4.34040104      -1.32906975     -10.51116359
C       -5.56104019      -0.84642155     -10.04807540
C       -5.73839943       0.46375418     -10.54514941
C       -4.61716473       0.72932441     -11.28893714
Br      -4.28570761       2.33003225     -12.19158488
O       -3.77472671      -0.33281925     -11.28383515
H       -5.87075065      -5.78080880      -8.08985529
H       -5.14797779      -4.40099313      -7.24847751
H       -4.64929416      -7.31728586      -6.42856464
H       -5.93692021      -6.31616759      -5.77255287
H       -4.26653958      -4.62201093      -5.02956609
H       -2.94713639      -5.67484673      -5.58972448
H       -3.35421307      -6.25788923      -1.90359206
H       -2.76596488      -1.67376396      -3.40981668
H       -1.45089281       0.52419844      -2.46863006
H       -2.67947080      -4.75289422      -9.88301694
H       -6.22708375      -1.41259387      -9.41060332
H       -6.57559780       1.12045188     -10.37200787
O       -4.17447406       4.77122737       9.12434131
C       -5.08929935       4.15679540       8.56903566
C       -5.85794805       4.72198728       7.38080479
C       -5.07007639       5.77050927       6.58895037
C       -3.99172098       5.12734158       5.71027643
C       -3.26228622       6.13909735       4.83064635
O       -3.29362151       7.35641230       5.03913614
N       -2.51041759       5.64495227       3.78752607
N       -2.52212186       4.26834037       3.42380364
C       -1.67968357       3.99519798       2.41600818
H       -1.00239713       4.70217098       1.94962545
C       -1.62500870       2.64916858       1.95256220
C       -2.45814191       1.57051490       2.24387264
C       -1.97488323       0.43639098       1.55516190
C       -0.86855716       0.86855716       0.86855716
O       -0.65663666       2.19090153       1.08067003
N       -5.48690125       2.93848064       9.07320945
N       -6.55843992       2.17142288       8.52976961
C       -6.58459854       0.93540021       9.05695460
H       -5.87630217       0.54881991       9.78308434
C       -7.57030637       0.02079388       8.58953413
C       -8.59340535       0.19929399       7.66283780
C       -9.29868520      -1.01825885       7.53936831
C       -8.67546305      -1.89195994       8.39327436
Br      -9.17058835      -3.67395907       8.65063095
O       -7.64488701      -1.28601081       9.03250490
H       -6.76337599       5.19070845       7.78733030
H       -6.17212438       3.92216443       6.70315962
H       -4.62297468       6.51404734       7.25812263
H       -5.76990767       6.31499084       5.94074215
H       -4.46882698       4.37255936       5.07673027
H       -3.24243530       4.63062678       6.33864552
H       -2.00031048       6.30091559       3.21446829
H       -3.31365376       1.63098472       2.90490704
H       -2.38395934      -0.56186523       1.57323032
H       -4.93651713       2.55238399       9.82648084
H       -8.77646760       1.13049093       7.14332241
H      -10.14511631      -1.22138733       6.90342480
O        9.06255749      -3.89255316       5.11493210
C        8.61401499      -4.79648026       4.40463517
C        7.44808683      -5.67885569       4.83379761
C        6.53616272      -5.01977644       5.87359688
C        5.62811223      -3.95882262       5.24240414
C        4.63531042      -3.36107820       6.23564131
O        4.76543041      -3.46383726       7.45990228
N        3.57667594      -2.64629396       5.71992604
N        3.30546646      -2.58537831       4.32342110
C        2.26120315      -1.79359915       4.03608742
H        1.70332924      -1.19940741       4.75145690
C        1.88408278      -1.67527136       2.66738533
C        2.30290281      -2.41002735       1.55959929
C        1.65769905      -1.89464884       0.41408823
C        0.86855716      -0.86855716       0.86855716
O        0.97838950      -0.73629319       2.21352553
N        9.22336900      -5.07401263       3.20120972
N        8.80758708      -6.12247406       2.32957127
C        9.41500659      -6.02752690       1.13441985
H       10.11350256      -5.24794595       0.84675791
C        9.07853577      -6.97525386       0.12684476
C        8.21603601      -8.06674179       0.17275933
C        8.22211775      -8.69163441      -1.09395750
C        9.08561144      -7.95428645      -1.86312043
Br       9.49297020      -8.30558088      -3.65129084
O        9.61014609      -6.92905898      -1.14782396
H        7.88546408      -6.58634278       5.26960788
H        6.84785035      -5.97992010       3.96967798
H        7.12234225      -4.58301246       6.68978994
H        5.90431180      -5.79688742       6.32444144
H        5.08023032      -4.42233621       4.41555008
H        6.23363022      -3.13712525       4.84095212
H        2.92765432      -2.22191843       6.36612161
H        3.01682193      -3.22261055       1.61011304
H        1.76959559      -2.23079295      -0.60506411
H        9.95990271      -4.44987679       2.90560247
H        7.65082810      -8.34811105       1.05134179
H        7.66162464      -9.56154276      -1.39601361
