174
Properties=species:S:1:pos:R:3 pbc="F F F"
O       10.03930595       5.12435331      -5.63609556
C        9.47009695       6.03959341      -5.03515213
C        8.28016317       6.79214327      -5.61814576
C        7.50515194       5.98754531      -6.66655086
C        6.63045277       4.90706618      -6.02153211
C        5.76680490       4.16042934      -7.03450776
O        5.98615738       4.18261085      -8.25011380
N        4.72607267       3.40354715      -6.54298819
N        4.34964830       3.42442561      -5.16990403
C        3.34708804       2.57529675      -4.89821700
H        2.89338375       1.88736404      -5.60315784
C        2.87183221       2.52860903      -3.55601031
C        3.14565347       3.37414778      -2.48244027
C        2.45099032       2.89492004      -1.35023782
C        1.77846119       1.77846119      -1.77846119
O        2.00461053       1.55648587      -3.09682389
N        9.95944114       6.45285877      -3.81600351
N        9.39927287       7.52629512      -3.06377650
C        9.91483973       7.56852014      -1.82330554
H       10.64380058       6.87045604      -1.42366187
C        9.43011128       8.55817102      -0.92206416
C        8.49583108       9.57106305      -1.11835509
C        8.35479502      10.28621722       0.09150550
C        9.20628061       9.67881929       0.97861036
Br       9.44277191      10.19245914       2.75825874
O        9.86038168       8.64868493       0.38797343
H        8.68272492       7.69696437      -6.09143753
H        7.59238341       7.10734731      -4.82742978
H        8.18515134       5.53986079      -7.39984459
H        6.85563128       6.67642464      -7.22329682
H        5.98570068       5.38518142      -5.27694657
H        7.26102352       4.16812050      -5.51227565
H        4.16371498       2.88226503      -7.19942642
H        3.79941219       4.23510155      -2.54474384
H        2.45618369       3.31320026      -0.35565255
H       10.71411065       5.91293829      -3.41804509
H        7.98323593       9.74088216      -2.05587493
H        7.70934883      11.12859119       0.28107416
O       -3.94737760      -7.64224504      -9.21013218
C       -4.64258574      -6.62491296      -9.27734378
C       -5.87411767      -6.41048714      -8.40584739
C       -5.84433208      -7.21347996      -7.10143607
C       -4.88957312      -6.59482592      -6.07465202
C       -4.91983268      -7.31342649      -4.72848283
O       -5.39053969      -8.44625828      -4.58208405
N       -4.35557466      -6.66499790      -3.65203546
N       -3.89989976      -5.31801194      -3.72606624
C       -3.33832946      -4.90110131      -2.58117102
H       -3.17271748      -5.51116969      -1.70001845
C       -2.86556003      -3.55807582      -2.53281570
C       -3.06202690      -2.50997956      -3.43023505
C       -2.36788040      -1.37760698      -2.95066081
C       -1.77846119      -1.77846119      -1.77846119
O       -2.08050021      -3.07183246      -1.50558763
N       -4.34432036      -5.66513420     -10.21884886
N       -5.10920049      -4.47655190     -10.40359210
C       -4.47509378      -3.61468307     -11.21688857
H       -3.49863418      -3.77665604     -11.66262828
C       -5.08348191      -2.35346449     -11.47340006
C       -6.30320190      -1.84041576     -11.04163155
C       -6.44742915      -0.53661434     -11.56546325
C       -5.30825040      -0.30506056     -12.29317857
Br      -4.93116260       1.27252841     -13.21833812
O       -4.48571893      -1.38197137     -12.25340288
H       -6.73892492      -6.73155559      -9.00064631
H       -6.00620991      -5.34977689      -8.17117370
H       -5.57613435      -8.25902707      -7.28969530
H       -6.85676757      -7.22292263      -6.67566254
H       -5.16920153      -5.54583012      -5.93279702
H       -3.85948395      -6.63244590      -6.44948983
H       -4.34371762      -7.14014927      -2.76153955
H       -3.64415404      -2.59587233      -4.33923122
H       -2.30609207      -0.40507963      -3.41386480
H       -3.49741705      -5.79459408     -10.75308290
H       -6.99094931      -2.38264753     -10.40639618
H       -7.27539846       0.13816878     -11.41963618
O       -4.91064025       5.88714806      10.00196650
C       -5.82052037       5.21380198       9.51052014
C       -6.65921229       5.69749267       8.33374724
C       -5.94830471       6.74275984       7.46818355
C       -4.88013477       6.10721165       6.57170464
C       -4.22955160       7.10975761       5.62243279
O       -4.30337729       8.33248731       5.78301743
N       -3.50015317       6.60299798       4.56945685
N       -3.46886362       5.21301918       4.26209514
C       -2.65687293       4.93200361       3.23172526
H       -2.02901488       5.64546943       2.70942132
C       -2.56459801       3.57104969       2.82080386
C       -3.33952350       2.47295017       3.18976785
C       -2.83729062       1.33132810       2.52752946
C       -1.77846119       1.77846119       1.77846119
O       -1.61368742       3.11595991       1.92827296
N       -6.14626119       4.00266188      10.07938034
N       -7.20573150       3.17115220       9.61246079
C       -7.15898938       1.95820674      10.18946930
H       -6.40656796       1.63107797      10.90027256
C       -8.12355067       0.98602140       9.80077439
C       -9.18959375       1.08439482       8.91126064
C       -9.84772163      -0.16458552       8.86637062
C       -9.15472917      -0.97608688       9.72784724
Br      -9.56416185      -2.76420088      10.07701134
O       -8.12556929      -0.30305290      10.29857679
H       -7.56640246       6.14608245       8.75864190
H       -6.96661080       4.85806188       7.70248782
H       -5.50619045       7.53098199       8.08768428
H       -6.69575134       7.23112308       6.82847832
H       -5.35030249       5.30804985       5.98947633
H       -4.08611106       5.66769030       7.18761832
H       -3.04134203       7.25436753       3.94969688
H       -4.16959065       2.52662330       3.88304364
H       -3.20320304       0.31908532       2.60274814
H       -5.55041718       3.67081224      10.82386461
H       -9.43214819       1.98494945       8.36289537
H      -10.70976164      -0.42794689       8.27505111
O       10.01635798      -4.97697981       5.80641703
C        9.49983798      -5.88937948       5.15562502
C        8.31787497      -6.70131114       5.67126608
C        7.48055796      -5.96015812       6.71853203
C        6.59098415      -4.88790702       6.08015990
C        5.66834045      -4.20639390       7.08700764
O        5.84735657      -4.26345138       8.30807408
N        4.61902268      -3.46827879       6.58530655
N        4.28990803      -3.45403299       5.20003692
C        3.26812205      -2.63014114       4.92233861
H        2.76733543      -1.98277501       5.63379519
C        2.83690426      -2.55280328       3.56674401
C        3.17588712      -3.35081683       2.47553757
C        2.50341960      -2.85612135       1.33660723
C        1.77846119      -1.77846119       1.77846119
O        1.95232233      -1.59499251       3.11060545
N       10.04395131      -6.24332007       3.94103204
N        9.54704679      -7.30816612       3.13413158
C       10.10516552      -7.28987777       1.91162214
H       10.82242814      -6.55423546       1.56125489
C        9.68570657      -8.26331912       0.96132076
C        8.78114692      -9.31324916       1.09085313
C        8.70580378      -9.99023260      -0.14652964
C        9.56498214      -9.32408114      -0.98257375
Br       9.87886490      -9.76728434      -2.76917693
O       10.16264574      -8.29371037      -0.33526293
H        8.73552615      -7.60800426       6.12759640
H        7.66843376      -7.01176201       4.84696474
H        8.11955054      -5.51564635       7.48965983
H        6.83704367      -6.68942009       7.22888898
H        5.98863535      -5.36123672       5.29795660
H        7.21223371      -4.11092557       5.61826040
H        4.01713513      -2.98933291       7.23893840
H        3.85672734      -4.19095999       2.53157026
H        2.55657640      -3.23915039       0.32930971
H       10.79233541      -5.66483100       3.58792762
H        8.24355121      -9.53269839       2.00374341
H        8.09677735     -10.84671918      -0.38663068
C       -0.00445707       0.01189536      -1.78238275
H       -0.66409135       0.67374010      -2.43557963
H        0.65740317      -0.63156657      -2.45157240
C       -0.90989263      -0.90692880      -0.91072765
C        0.90977584       0.90977584      -0.90977584
C       -0.00465871       1.77757030       0.00794375
H       -0.66225468       2.44313916      -0.64384735
H        0.64322798       2.43503045       0.67728295
C       -1.78241447       0.00034974      -0.00472694
H       -2.45427497      -0.65498947       0.64260836
H       -2.43311707       0.67328779      -0.65473579
C       -0.91132561       0.90220522       0.91563759
C       -0.01476271      -0.02253852       1.78660255
H       -0.67934791      -0.69751639       2.42135241
H        0.63392994       0.61504881       2.47327442
C        0.01484550      -1.77751727      -0.01636693
H        0.67870853      -2.42144646      -0.68295456
H       -0.62264859      -2.45592969       0.64226336
C        1.78714474       0.01002794       0.00389507
H        2.44202412       0.67113390       0.66197326
H        2.45385902      -0.65136977      -0.64189061
C        0.91606151      -0.90478549       0.90901405
