166
Properties=species:S:1:pos:R:3 pbc="F F F"
C        1.79156580       1.79156580      -1.79156580
C        2.69484283       2.67371037      -1.20015403
C        3.49653564       3.48613644      -2.00523418
C        3.39293011       3.41363033      -3.40235548
C        2.49375153       2.51360156      -3.98743507
C        1.68769521       1.70615184      -3.18022491
C        4.23395415       4.25661047      -4.28804497
O        4.49200326       3.99158415      -5.45104803
O        4.63455756       5.35586036      -3.61130024
C        5.56170612       6.22363253      -4.29623170
C        5.51528913       7.57747125      -3.60028678
O        5.99554156       7.49700864      -2.25784844
C        7.29553818       6.91382007      -2.15204066
O        7.38343601       5.63871725      -2.79259060
C        6.97409987       5.66677956      -4.16163856
C        8.43324106       7.86013206      -2.52049551
C        8.27000506       9.25394805      -2.44853282
C        9.32308383      10.11571033      -2.76533156
C       10.55832833       9.59026966      -3.13521971
Br      11.98201375      10.75481749      -3.56935434
C       10.75388300       8.21261248      -3.17959757
C        9.69866718       7.35338159      -2.86457239
H        2.78469848       2.73704002      -0.11861568
H        4.20466890       4.16523124      -1.53402138
H        2.41465010       2.44278278      -5.07070780
H        0.98601778       1.01649140      -3.64250532
H        5.26923488       6.33736929      -5.34654511
H        4.48241982       7.93757403      -3.54441415
H        6.09614175       8.32331147      -4.15376057
H        7.43108140       6.70969019      -1.08334546
H        7.68674138       6.25747745      -4.74791054
H        7.02496274       4.63616061      -4.52602952
H        7.31504887       9.67902710      -2.14310166
H        9.16946276      11.19045839      -2.71448249
H       11.72019017       7.79653034      -3.45196989
H        9.86822549       6.27767373      -2.88927128
C       -1.79156580      -1.79156580      -1.79156580
C       -1.46571151      -1.96725398      -3.13574174
C       -2.27543760      -2.76732056      -3.94514810
C       -3.41078167      -3.39121433      -3.40691992
C       -3.72143335      -3.22123976      -2.05211505
C       -2.91375187      -2.41504385      -1.24527624
C       -4.28918610      -4.25357475      -4.23584874
O       -5.02823384      -5.11638693      -3.79001468
O       -4.15444837      -3.91093604      -5.53633376
C       -4.85493505      -4.73732700      -6.48930830
C       -4.96658856      -3.94273040      -7.78372820
O       -3.68526266      -3.69969179      -8.36544419
C       -2.91411884      -4.88648123      -8.56079884
O       -2.78325125      -5.66356250      -7.36793011
C       -4.03880348      -5.99355486      -6.77015965
C       -3.33059013      -5.70505617      -9.77822232
C       -4.00647103      -5.10940125     -10.85661365
C       -4.36523651      -5.85952041     -11.97936881
C       -4.03017772      -7.20943367     -12.04420631
Br      -4.51972760      -8.22656159     -13.55989638
C       -3.32983447      -7.81294077     -11.00331782
C       -2.97441335      -7.06117422      -9.88103358
H       -0.58739802      -1.48994927      -3.56300689
H       -2.00768379      -2.90515817      -4.99107957
H       -4.59418678      -3.71046058      -1.62349333
H       -3.16705462      -2.28132185      -0.19663804
H       -5.85685104      -4.97981430      -6.11648394
H       -5.41446293      -2.96272674      -7.58721833
H       -5.60614488      -4.45956725      -8.50750165
H       -1.90092028      -4.53471492      -8.78848186
H       -4.58851616      -6.68151060      -7.42210261
H       -3.81418034      -6.52987645      -5.84309609
H       -4.25888825      -4.05044924     -10.82784014
H       -4.89868673      -5.37987065     -12.79584627
H       -3.05140083      -8.86215490     -11.05513467
H       -2.41428435      -7.54127043      -9.07961573
C       -1.79156580       1.79156580       1.79156580
C       -2.84501124       2.50380978       1.21988622
C       -3.64758011       3.31649525       2.02383091
C       -3.39432442       3.41445988       3.40013162
C       -2.34353975       2.68340280       3.96784561
C       -1.53744260       1.87583811       3.16079125
C       -4.23101180       4.26250154       4.28509625
O       -4.33714080       4.10664186       5.49085278
O       -4.82111914       5.23089575       3.54970328
C       -5.76623344       6.07179311       4.24354380
C       -5.94551783       7.33522764       3.41230169
O       -6.54799646       7.05387067       2.14853151
C       -7.77712015       6.33279435       2.25148440
O       -7.65344641       5.13662973       3.02466771
C       -7.11236894       5.36199272       4.32815633
C       -8.97155879       7.19378882       2.64852101
C       -8.97625408       8.57968666       2.41654519
C      -10.08271178       9.35988348       2.76153045
C      -11.20586068       8.75663701       3.32132001
Br     -12.70105780       9.81158557       3.79354221
C      -11.23775929       7.38026884       3.52806493
C      -10.12929679       6.60299367       3.18433070
H       -3.05142020       2.43410477       0.15482920
H       -4.47279239       3.86167970       1.56944943
H       -2.14672898       2.74480640       5.03660530
H       -0.71831927       1.31853643       3.60815881
H       -5.38293516       6.33361049       5.23660363
H       -4.97148925       7.79016858       3.20275017
H       -6.54794670       8.07601119       3.94925589
H       -7.99692202       5.99557304       1.23162199
H       -7.82402838       5.93973909       4.92836190
H       -7.00811633       4.37978089       4.79925565
H       -8.11209342       9.06247800       1.96260621
H      -10.05843237      10.43188712       2.58408416
H      -12.11753619       6.90144666       3.94970755
H      -10.17188613       5.52543788       3.33784650
C        1.79156580      -1.79156580       1.79156580
C        1.32453245      -2.20603215       3.03814263
C        2.13286182      -3.00624072       3.84880372
C        3.40836775      -3.39102346       3.40952471
C        3.86272121      -2.98254110       2.14952585
C        3.05515199      -2.17644149       1.34247849
C        4.29077819      -4.24633320       4.24149819
O        5.20139246      -4.93031997       3.80292301
O        3.93959271      -4.12144010       5.54068536
C        4.62619000      -4.98294852       6.47243182
C        4.45005976      -4.38221979       7.86076762
O        3.08251535      -4.39615912       8.27172418
C        2.47793782      -5.68840646       8.19505462
O        2.61949844      -6.28956515       6.90568026
C        3.97679504      -6.36181406       6.46390889
C        2.85075132      -6.61832935       9.34478795
C        3.28531254      -6.10755284      10.57962055
C        3.60359711      -6.96372822      11.63680039
C        3.46769934      -8.34010513      11.47601323
Br       3.90316644      -9.49964269      12.90337644
C        3.00547776      -8.86732451      10.27329079
C        2.69016580      -8.00917193       9.21728343
H        0.33717714      -1.91522190       3.38795514
H        1.75570068      -3.33168969       4.81653115
H        4.84657489      -3.28555025       1.79601554
H        3.41910822      -1.85649212       0.36941416
H        5.69272780      -5.03567958       6.22474190
H        4.76864648      -3.33430910       7.86145242
H        5.06046178      -4.91400279       8.59874921
H        1.40282921      -5.50839182       8.31289603
H        4.53387544      -7.06227587       7.09597805
H        3.95624338      -6.77862696       5.45228253
H        3.37884570      -5.03247671      10.72585522
H        3.94964439      -6.54609695      12.57866231
H        2.88201082      -9.93964692      10.14703266
H        2.31608341      -8.43293098       8.28615611
C       -0.00445707       0.01189536      -1.78238275
H       -0.66409135       0.67374010      -2.43557963
H        0.65740317      -0.63156657      -2.45157240
C       -0.90989263      -0.90692880      -0.91072765
C        0.90977584       0.90977584      -0.90977584
C       -0.00465871       1.77757030       0.00794375
H       -0.66225468       2.44313916      -0.64384735
H        0.64322798       2.43503045       0.67728295
C       -1.78241447       0.00034974      -0.00472694
H       -2.45427497      -0.65498947       0.64260836
H       -2.43311707       0.67328779      -0.65473579
C       -0.91132561       0.90220522       0.91563759
C       -0.01476271      -0.02253852       1.78660255
H       -0.67934791      -0.69751639       2.42135241
H        0.63392994       0.61504881       2.47327442
C        0.01484550      -1.77751727      -0.01636693
H        0.67870853      -2.42144646      -0.68295456
H       -0.62264859      -2.45592969       0.64226336
C        1.78714474       0.01002794       0.00389507
H        2.44202412       0.67113390       0.66197326
H        2.45385902      -0.65136977      -0.64189061
C        0.91606151      -0.90478549       0.90901405
