145
Properties=species:S:1:pos:R:3 pbc="F F F"
C        0.00000000       0.00000000       0.00000000
C        0.88166177       0.88166177      -0.88166177
C        1.78493881       1.76380634      -0.29025001
C        2.58663162       2.57623242      -1.09533015
C        2.48302608       2.50372631      -2.49245145
C        1.58384750       1.60369754      -3.07753105
C        0.77779119       0.79624782      -2.27032088
C        3.32405012       3.34670645      -3.37814094
O        3.58209923       3.08168013      -4.54114401
O        3.72465354       4.44595634      -2.70139622
C        4.65180209       5.31372850      -3.38632768
C        4.60538511       6.66756723      -2.69038276
O        5.08563753       6.58710461      -1.34794442
C        6.38563415       6.00391604      -1.24213664
O        6.47353198       4.72881322      -1.88268657
C        6.06419584       4.75687554      -3.25173454
C        7.52333704       6.95022803      -1.61059148
C        7.36010104       8.34404403      -1.53862880
C        8.41317981       9.20580630      -1.85542754
C        9.64842431       8.68036564      -2.22531568
Br      11.07210972       9.84491347      -2.65945031
C        9.84397898       7.30270846      -2.26969355
C        8.78876316       6.44347756      -1.95466836
H        1.87479445       1.82713600       0.79128835
H        3.29476487       3.25532721      -0.62411736
H        1.50474608       1.53287876      -4.16080378
H        0.07611376       0.10658738      -2.73260130
H        4.35933085       5.42746527      -4.43664109
H        3.57251580       7.02767000      -2.63451013
H        5.18623772       7.41340744      -3.24385654
H        6.52117738       5.79978617      -0.17344144
H        6.77683735       5.34757343      -3.83800651
H        6.11505872       3.72625658      -3.61612550
H        6.40514485       8.76912308      -1.23319764
H        8.25955874      10.28055437      -1.80457847
H       10.81028615       6.88662632      -2.54206587
H        8.95832147       5.36776971      -1.97936726
C       -0.88166177      -0.88166177      -0.88166177
C       -0.29105843      -1.73776139      -1.81017534
C       -1.09647869      -2.53922978      -2.62248572
C       -2.49310453      -2.48268583      -2.50341348
C       -3.07668259      -1.63103251      -1.55736098
C       -2.26942898      -0.82498248      -0.74994843
C       -3.37881226      -3.32507859      -3.34500667
O       -4.52417708      -3.62830760      -3.05243869
O       -2.72549561      -3.66954099      -4.47696950
C       -3.40876751      -4.59077934      -5.35231143
C       -2.75827845      -4.48015652      -6.72490012
O       -1.39970673      -4.91946652      -6.70151332
C       -1.23503008      -6.23286957      -6.16378718
O       -1.83141261      -6.38071782      -4.87290135
C       -3.21269161      -6.01473008      -4.84538423
C       -1.59812418      -7.35188989      -7.13414248
C       -1.57589927      -7.14329301      -8.52358159
C       -1.88730690      -8.17874194      -9.40836481
C       -2.20170955      -9.44088964      -8.91150643
Br      -2.62853425     -10.84094313     -10.10699612
C       -2.19589201      -9.68038927      -7.54009971
C       -1.88640345      -8.64278367      -6.65772196
H        0.79016525      -1.79095288      -1.90985447
H       -0.62550807      -3.21052230      -3.33817907
H       -4.15906578      -1.58887230      -1.45049054
H       -2.73093779      -0.16018114      -0.02418350
H       -4.47074650      -4.32868371      -5.42400701
H       -2.74601294      -3.43535892      -7.05332407
H       -3.31705933      -5.05501695      -7.47142543
H       -0.15666092      -6.34040777      -5.99733629
H       -3.79518670      -6.72710882      -5.44012177
H       -3.54216180      -6.10916150      -3.80611750
H       -1.31398651      -6.16633000      -8.92714906
H       -1.87566574      -7.99031991     -10.47870592
H       -2.42471470     -10.66735506      -7.14690857
H       -1.87139550      -8.84632002      -5.58774291
C       -0.88166177       0.88166177       0.88166177
C       -1.90759373       1.62796760       0.30343383
C       -2.70998082       2.44061986       1.10759351
C       -2.48412400       2.50442572       2.49065412
C       -1.46115968       1.73945461       3.06446180
C       -0.65507275       0.93191055       2.25737658
C       -3.32160330       3.35145498       3.37583924
O       -3.45663315       3.17276688       4.57552334
O       -3.87556953       4.34733894       2.64909763
C       -4.81750354       5.19352578       3.34082896
C       -4.95263058       6.47756377       2.53314074
O       -5.53377981       6.23554137       1.25136539
C       -6.77959679       5.53883147       1.31325857
O       -6.69741470       4.32443004       2.06318704
C       -6.17965413       4.51096312       3.38218867
C       -7.96399968       6.41661297       1.70354390
C       -7.93483094       7.80683475       1.50110817
C       -9.03186870       8.60306570       1.83947925
C      -10.17903502       8.01234238       2.36272822
Br     -11.66161780       9.08883232       2.82602338
C      -10.24404485       6.63295234       2.53938379
C       -9.14496887       5.83957293       2.20236728
H       -2.09266791       1.58491600      -0.76694180
H       -3.51376678       3.01262906       0.64781361
H       -1.28593155       1.77433579       4.13816126
H        0.14252359       0.34806564       2.70976039
H       -4.45007576       5.42633691       4.34702454
H       -3.96507672       6.91591733       2.35370188
H       -5.55077720       7.21965197       3.07307254
H       -6.98460309       5.22772495       0.28207694
H       -6.89173262       5.09109467       3.97959000
H       -6.10598245       3.51713651       3.83432184
H       -7.05130685       8.28046713       1.07569159
H       -8.98144997       9.67777762       1.68546398
H      -11.14240715       6.16429406       2.93227712
H       -9.21329526       4.76020085       2.33196232
C        0.88166177      -0.88166177       0.88166177
C        0.40035065      -1.32635548       2.11228902
C        1.20849470      -2.12660808       2.92309141
C        2.49813476      -2.48114543       2.49992365
C        2.96711119      -2.04241669       1.25554821
C        2.15955900      -1.23632591       0.44847498
C        3.38094489      -3.33556585       3.33238678
O        4.31112037      -3.99560794       2.89819507
O        3.00492502      -3.23997851       4.62710257
C        3.69034843      -4.10579606       5.55571378
C        3.47930048      -3.53304666       6.95098796
O        2.10524305      -3.57821270       7.33723082
C        1.52519630      -4.87926603       7.22722451
O        1.69996237      -5.45481132       5.93025809
C        3.06584820      -5.49543740       5.51152032
C        1.89433915      -5.82284442       8.36697298
C        2.29807814      -5.32660692       9.61808880
C        2.61301497      -6.19576696      10.66563172
C        2.50447059      -7.57122994      10.47840509
Br       2.93547933      -8.74819755      11.89279663
C        2.07281097      -8.08496049       9.25860953
C        1.76079013      -7.21379275       8.21232620
H       -0.59799121      -1.05912959       2.44950372
H        0.82031994      -2.47577696       3.87811255
H        3.96223432      -2.32183310       0.91436120
H        2.53472419      -0.89279087      -0.51221263
H        4.76182442      -4.13544987       5.32616292
H        3.77912346      -2.47990290       6.97566956
H        4.08607194      -4.06712503       7.69030474
H        0.44515739      -4.72020688       7.32904071
H        3.62416933      -6.19718934       6.14105862
H        3.07041381      -5.89447322       4.49255378
H        2.36988868      -4.25283275       9.78474413
H        2.93504912      -5.78897884      11.62066361
H        1.97067760      -9.15686087       9.11143986
H        1.41065094      -7.62738810       7.26741939
