161
Properties=species:S:1:pos:R:3 pbc="F F F"
C        0.00000000       0.00000000       0.00000000
C        4.20478990       6.42340442       0.07950582
C        4.24838564       6.41312346      -1.25911187
C        4.59957935       5.23052193      -2.11060957
N        3.46283871       4.77121087      -2.89544003
C        3.43641145       3.39660565      -3.39472698
H        4.45557836       2.99312561      -3.38520087
C        2.51367943       2.51875322      -2.52229943
C        2.28574029       2.82346065      -1.16364169
C        1.47696368       2.01805904      -0.35191598
C        0.88109447       0.88109447      -0.88109447
C        1.09187681       0.54318832      -2.21108503
C        1.90542399       1.35005338      -3.01793276
C        2.94354170       3.62833861      -4.80914230
C        2.33111514       4.81119004      -4.91576590
O        1.70613307       5.39371934      -5.97592395
C        2.75765951       5.60482150      -3.74328705
O        2.61305696       6.81566226      -3.72311374
C        3.28337850       2.62518220      -5.85055025
O        3.80085404       1.56040750      -5.50973836
C        3.11261434       2.85656720      -7.30866019
C        2.81490357       1.74394914      -8.11150730
C        2.69704258       1.87437251      -9.49909832
C        2.87601776       3.12142839     -10.09080099
Br       2.69551672       3.30992132     -11.96248808
C        3.20612442       4.22842860      -9.31284790
C        3.35395276       4.08809039      -7.92720668
H        3.96166915       7.34311976       0.60819305
H        4.40211325       5.53972340       0.67469242
H        4.05716647       7.34357661      -1.78428433
H        4.94729563       4.40037241      -1.48424237
H        5.40810264       5.49600312      -2.80026074
H        2.72591378       3.70509510      -0.70606912
H        1.32255150       2.29182384       0.68894386
H        0.63622350      -0.34810355      -2.63604044
H        2.04635573       1.02687824      -4.04446367
H        1.54388011       6.32118495      -5.69913777
H        2.68946812       0.76108061      -7.65949886
H        2.47388302       0.99857495     -10.10352089
H        3.36152258       5.20170637      -9.77123405
H        3.66861819       4.95654777      -7.35634965
C       -3.18636754      -0.38784296      -6.97447799
C       -3.98177084      -1.38146003      -6.55739010
C       -3.53428709      -2.59946671      -5.80695705
N       -4.05828470      -2.62219293      -4.44901198
C       -3.38230945      -3.41955411      -3.42588052
H       -2.74938025      -4.16816641      -3.91635818
C       -2.52259418      -2.51820850      -2.51392940
C       -1.98779549      -1.30036703      -2.98468012
C       -1.17964800      -0.48835262      -2.17893809
C       -0.88109447      -0.88109447      -0.88109447
C       -1.38016165      -2.07879260      -0.38719590
C       -2.18480879      -2.88972452      -1.19887683
C       -4.57541421      -4.06028440      -2.74532400
C       -5.69429072      -3.37242193      -2.99135842
O       -6.96728980      -3.56160620      -2.54688036
C       -5.40890455      -2.52664434      -4.17021917
O       -6.31598244      -2.02386029      -4.81199023
C       -4.37679321      -5.34878787      -2.03352987
O       -3.23131189      -5.77109832      -1.86858969
C       -5.48991921      -6.21772722      -1.57019531
C       -5.27746945      -6.98144849      -0.41144207
C       -6.25739150      -7.86527252       0.05215060
C       -7.45719023      -7.98852452      -0.64253239
Br      -8.79513918      -9.16340272      -0.00938423
C       -7.67009185      -7.26435622      -1.81295286
C       -6.67432360      -6.40350559      -2.29142065
H       -3.60598256       0.44497031      -7.53558360
H       -2.12171292      -0.37177156      -6.77365976
H       -5.03533550      -1.33540759      -6.81428432
H       -2.43945169      -2.63507905      -5.75737967
H       -3.87933096      -3.50180620      -6.32322934
H       -2.19769541      -0.94846581      -3.99091677
H       -0.79229726       0.44561292      -2.57874714
H       -1.14851109      -2.40095430       0.62530501
H       -2.53229689      -3.82146777      -0.76393297
H       -7.51955197      -2.95693270      -3.08771815
H       -4.33544150      -6.90417014       0.12956406
H       -6.06965533      -8.45343947       0.94711595
H       -8.59921159      -7.36768551      -2.36756589
H       -6.84703945      -5.89778849      -3.23668766
C       -6.94765897       3.24844976       0.35257976
C       -6.53255438       4.03052090       1.35754569
C       -5.79790905       3.56455721       2.57824460
N       -4.43538733       4.07544480       2.61865749
C       -3.42622911       3.38237262       3.41914235
H       -3.92968088       2.74712322       4.15710075
C       -2.51388867       2.52255330       2.51829012
C       -2.97808641       2.00367345       1.29108277
C       -2.17230758       1.19558498       0.47904615
C       -0.88109447       0.88109447       0.88109447
C       -0.39389527       1.36421575       2.08803914
C       -1.20563505       2.16887053       2.89890455
C       -2.74061160       4.56292481       4.07748621
C       -2.96962597       5.69047865       3.39796645
O       -2.51504394       6.95738511       3.60334730
C       -4.14305372       5.42420228       2.53851206
O       -4.77150654       6.34198622       2.03834020
C       -2.04293592       4.34550657       5.37066846
O       -1.89274504       3.19460709       5.78364778
C       -1.57743044       5.44600335       6.25440794
C       -0.42799884       5.21544748       7.02691369
C        0.03637515       6.18261016       7.92427841
C       -0.64816510       7.38772094       8.05236111
Br      -0.01364865       8.70854573       9.24573175
C       -1.80963296       7.61846824       7.31929973
C       -2.28924670       6.63538618       6.44461696
H       -7.49690008       3.68114457      -0.48144879
H       -6.75668703       2.18213987       0.32831733
H       -6.77911341       5.08685483       1.31905917
H       -5.75893656       2.46901594       2.60395792
H       -6.31943994       3.90599710       3.47892947
H       -3.97893599       2.22637584       0.93176616
H       -2.56687408       0.82080749      -0.46225009
H        0.61329554       1.11998418       2.41747175
H       -0.77628952       2.50347727       3.83793085
H       -3.04493446       7.52038482       2.99888354
H        0.10485958       4.26910791       6.94579925
H        0.92393525       5.98090769       8.51900642
H       -2.35646461       8.55178530       7.42621308
H       -3.22802504       6.82177276       5.93171780
C        0.54807041      -2.92183107       7.07878701
C        1.82659254      -3.24685444       6.84717399
C        2.33693665      -3.96772578       5.63604843
N        3.19175032      -3.11794209       4.81979721
C        3.38793216      -3.43451748       3.40529444
H        3.11819516      -4.48288900       3.23282069
C        2.52304098      -2.51461572       2.51707538
C        1.31889913      -1.95719889       2.99674462
C        0.50799371      -1.14722044       2.19172455
C        0.88109447      -0.88109447       0.88109447
C        2.05363162      -1.42170258       0.37081596
C        2.85932749      -2.23499445       1.17908819
C        4.88278168      -3.21746634       3.28077459
C        5.33958259      -2.44649682       4.27199166
O        6.59001955      -1.96736143       4.51839537
C        4.30446665      -2.47370940       5.32759201
O        4.56443906      -2.12147186       6.46592204
C        5.61555081      -3.93636602       2.20719412
O        4.97457116      -4.54638295       1.35004579
C        7.09682043      -4.03853111       2.14249019
C        7.68697349      -4.11264350       0.87074302
C        9.07003954      -4.26831402       0.73215986
C        9.87064365      -4.34980040       1.86780309
Br      11.74258009      -4.53690207       1.68844396
C        9.29767897      -4.31306396       3.13665800
C        7.90923711      -4.18835195       3.27166078
H        0.27449605      -2.41813934       8.00396046
H       -0.24442979      -3.13906499       6.37250903
H        2.56049135      -3.01271497       7.61182109
H        1.49973998      -4.31390322       5.01826721
H        2.91695031      -4.84493150       5.94248470
H        0.98790639      -2.13257879       4.01659282
H       -0.40950332      -0.73268009       2.60225470
H        2.35387615      -1.22623739      -0.65595316
H        3.75497725      -2.64207313       0.72064725
H        6.54653980      -1.59308939       5.42457363
H        7.06708417      -4.06646948      -0.02350606
H        9.50614822      -4.33162697      -0.26179633
H        9.91652252      -4.39106660       4.02687387
H        7.48810471      -4.22141796       4.27199294
