101
Properties=species:S:1:pos:R:3 pbc="F F F"
C        0.00000000       0.00000000       0.00000000
C        0.88155618       0.88155618      -0.88155618
C        2.26321916       0.88170317      -0.69836227
C        3.07254720       1.68801111      -1.50551454
C        2.49942389       2.49719429      -2.49814424
C        1.10692826       2.48848893      -2.66870398
C        0.29908760       1.68079565      -1.86288113
C        3.32289861       3.37163908      -3.37516114
N        2.80669952       4.22226913      -4.20049235
C        3.68539012       4.98087337      -4.96668966
C        3.17791907       5.92329580      -5.86321820
C        4.04281535       6.69634801      -6.64311654
C        5.42145791       6.52333720      -6.52446718
Br       6.59137523       7.56717718      -7.57881882
C        5.94078535       5.58762625      -5.63407203
C        5.05921572       4.82368365      -4.86029685
C        5.55564556       3.82856294      -3.90418705
O        6.75836838       3.63953387      -3.76496992
O        4.63927608       3.13775232      -3.18695928
H        2.72069151       0.26050995       0.06804729
H        4.14782096       1.67330114      -1.34131802
H        0.64018256       3.10873123      -3.43182719
H       -0.77808155       1.68426815      -2.00965632
H        2.10225187       6.05530521      -5.95254052
H        3.63109365       7.42640536      -7.33580029
H        7.01500639       5.44843687      -5.53624761
C       -0.88155618      -0.88155618      -0.88155618
C       -0.41598921      -1.30070251      -2.12659288
C       -1.22179943      -2.10900186      -2.93527156
C       -2.49696334      -2.49894658      -2.49885251
C       -2.95290913      -2.06677104      -1.24444100
C       -2.14603904      -1.26063171      -0.43609364
C       -3.38683837      -3.35431182      -3.32854865
N       -4.61185232      -3.61187253      -3.00573616
C       -5.33980844      -4.42722096      -3.86592374
C       -6.67140221      -4.72407173      -3.56895914
C       -7.42144836      -5.54142012      -4.41941142
C       -6.83414505      -6.06382160      -5.57129563
Br      -7.84686932      -7.16943037      -6.72107154
C       -5.50757214      -5.77533313      -5.87957835
C       -4.77264909      -4.95373980      -5.01680733
C       -3.37374816      -4.61565484      -5.29899255
O       -2.81356028      -5.05128333      -6.29802856
O       -2.73542431      -3.80776263      -4.42080075
H        0.56968971      -1.00487221      -2.47797169
H       -0.83763150      -2.42069654      -3.90411209
H       -3.93900507      -2.35615518      -0.88558072
H       -2.51375405      -0.93626259       0.53417372
H       -7.12570465      -4.31450528      -2.66988767
H       -8.45745980      -5.76203057      -4.17380893
H       -5.04392231      -6.17897391      -6.77679465
C       -0.88155618       0.88155618       0.88155618
C       -1.41476527       2.06186142       0.36665791
C       -2.22325139       2.87036668       1.17245478
C       -2.49906805       2.49871610       2.49697828
C       -1.95286199       1.30925484       3.00200434
C       -1.14661747       0.50086693       2.19527998
C       -3.35043571       3.33090793       3.38835519
N       -3.50553403       3.07743751       4.64648947
C       -4.32961466       3.93139519       5.37194330
C       -4.51873403       3.70847524       6.73722381
C       -5.34270874       4.55413616       7.48543500
C       -5.98013901       5.62664443       6.86247885
Br      -7.09478798       6.76981452       7.87276874
C       -5.79980147       5.86063874       5.50204342
C       -4.96977513       5.00403143       4.76938965
C       -4.74292901       5.21025487       3.33521167
O       -5.28167940       6.13806783       2.74312493
O       -3.91924594       4.34407635       2.70066540
H       -1.20809720       2.36275193      -0.65769495
H       -2.62518190       3.78825955       0.74899867
H       -2.15256964       1.00136099       4.02681034
H       -0.73303231      -0.41876376       2.60157436
H       -4.01965777       2.87119299       7.21924685
H       -5.47854356       4.36687481       8.54788093
H       -6.29345366       6.69581155       5.01042566
C        0.88155618      -0.88155618       0.88155618
C        1.54680095      -0.32430021       1.97218343
C        2.35420062      -1.13044563       2.78142661
C        2.49790523      -2.49735131       2.49950588
C        1.82428073      -3.04325384       1.39658660
C        1.01597805      -2.23718975       0.58959658
C        3.34903129      -3.38880574       3.33186181
N        3.60176469      -4.61561820       3.01207811
C        4.41133636      -5.34572657       3.87589021
C        4.72507129      -6.67102980       3.56833198
C        5.53680203      -7.42316892       4.42230895
C        6.03507645      -6.84485465       5.58933119
Br       7.13168769      -7.86093113       6.74475241
C        5.73049944      -5.52427585       5.90770833
C        4.91732997      -4.78621432       5.03965193
C        4.57134566      -3.39025645       5.32679343
O        4.98411812      -2.83858405       6.34016999
O        3.78833880      -2.74266105       4.43298783
H        1.44550669       0.73385708       2.20150458
H        2.86564377      -0.67185732       3.62493903
H        1.92161818      -4.10090070       1.15822209
H        0.49923327      -2.67657824      -0.25996860
H        4.33471827      -7.11817389       2.65720545
H        5.77213178      -8.45369639       4.16747113
H        6.11659616      -5.06716241       6.81593230
