109
Properties=species:S:1:pos:R:3 pbc="F F F"
C        0.00000000       0.00000000       0.00000000
C        0.88155618       0.88155618      -0.88155618
C        2.26321916       0.88170317      -0.69836227
C        3.07254720       1.68801111      -1.50551454
C        2.49942389       2.49719429      -2.49814424
C        1.10692826       2.48848893      -2.66870398
C        0.29908760       1.68079565      -1.86288113
C        3.32289861       3.37163908      -3.37516114
N        2.80669952       4.22226913      -4.20049235
C        3.68539012       4.98087337      -4.96668966
C        3.17791907       5.92329580      -5.86321820
C        4.04281535       6.69634801      -6.64311654
C        5.42145791       6.52333720      -6.52446718
C        5.94078535       5.58762625      -5.63407203
C        5.05921572       4.82368365      -4.86029685
C        5.55564556       3.82856294      -3.90418705
O        6.75836838       3.63953387      -3.76496992
O        4.63927608       3.13775232      -3.18695928
H        2.72069151       0.26050995       0.06804729
H        4.14782096       1.67330114      -1.34131802
H        0.64018256       3.10873123      -3.43182719
H       -0.77808155       1.68426815      -2.00965632
H        2.10225187       6.05530521      -5.95254052
H        3.63109365       7.42640536      -7.33580029
H        7.01500639       5.44843687      -5.53624761
C        6.31308988       7.31888154      -7.32802280
C        7.05983166       7.98514992      -8.00100063
Br       8.26724996       9.06244954      -9.08914885
C       -0.88155618      -0.88155618      -0.88155618
C       -0.39888151      -1.33735837      -2.10704471
C       -1.20468483      -2.14571873      -2.91566929
C       -2.49696625      -2.49898660      -2.49880958
C       -2.96994067      -2.03016210      -1.26401840
C       -2.16311774      -1.22399042      -0.45565622
C       -3.38736977      -3.35306384      -3.32926522
N       -4.62424678      -3.57753351      -3.02768071
C       -5.35129219      -4.39570675      -3.88595421
C       -6.69500315      -4.65774825      -3.61168168
C       -7.44437822      -5.47724113      -4.46066055
C       -6.84423579      -6.03681436      -5.58821214
C       -5.50548453      -5.78327007      -5.87372902
C       -4.77139489      -4.95894657      -5.01285476
C       -3.35982772      -4.65679699      -5.27177083
O       -2.78814961      -5.12575042      -6.24897214
O       -2.72291674      -3.84378566      -4.39728528
H        0.60020545      -1.07018013      -2.44317951
H       -0.80690089      -2.48640830      -3.86913094
H       -3.96946346      -2.29072621      -0.92055131
H       -2.54421196      -0.87095024       0.49931929
H       -7.15928926      -4.21925622      -2.73155212
H       -8.48990166      -5.67045851      -4.23293914
H       -5.03176628      -6.21599717      -6.75192741
C       -7.61538453      -6.88166524      -6.46294445
C       -8.26122160      -7.58922785      -7.19553275
Br      -9.30548552      -8.73329675      -8.38006609
C       -0.88155618       0.88155618       0.88155618
C       -1.41488507       2.06178734       0.36661218
C       -2.22337139       2.87029241       1.17240906
C       -2.49906817       2.49871595       2.49697830
C       -1.95274236       1.30932899       3.00204982
C       -1.14649772       0.50094105       2.19532561
C       -3.35043165       3.33091061       3.38835657
N       -3.50542314       3.07751815       4.64651972
C       -4.32951286       3.93146886       5.37197143
C       -4.51851998       3.70863204       6.73728106
C       -5.34250158       4.55428760       7.48549072
C       -5.98005167       5.62670679       6.86250383
C       -5.79982681       5.86061769       5.50203912
C       -4.96979171       5.00401727       4.76938723
C       -4.74306152       5.21015537       3.33517865
O       -5.28191933       6.13788841       2.74306442
O       -3.91936209       4.34399022       2.70063538
H       -1.20831067       2.36262006      -0.65777654
H       -2.62539669       3.78812695       0.74891648
H       -2.15235583       1.00149346       4.02689169
H       -0.73281885      -0.41863169       2.60165575
H       -4.01935048       2.87141913       7.21932800
H       -5.47824807       4.36709175       8.54795948
H       -6.29357277       6.69572087       5.01039723
C       -6.82956899       6.49794821       7.63247701
C       -7.54103975       7.22761290       8.27732956
Br      -8.69142779       8.40741898       9.32000159
C        0.88155618      -0.88155618       0.88155618
C        1.52992256      -0.32879627       1.98456576
C        2.33729061      -1.13496075       2.79382149
C        2.49788328      -2.49736781       2.49951134
C        1.84114639      -3.03873441       1.38424037
C        1.03285335      -2.23268357       0.57722746
C        3.34961428      -3.38862527       3.33145929
N        3.61817055      -4.60945661       3.00183384
C        4.42637482      -5.34013031       3.86644802
C        4.75681342      -6.65894761       3.54867205
C        5.56750276      -7.41152679       4.40325035
C        6.04792340      -6.84019256       5.58114632
C        5.72658031      -5.52611721       5.90978610
C        4.91474008      -4.78748418       5.04097195
C        4.55153743      -3.39813776       5.33872036
O        4.94830045      -2.85273391       6.36183781
O        3.77104744      -2.74939038       4.44354986
H        1.41544116       0.72586590       2.22357892
H        2.83539661      -0.67988387       3.64715964
H        1.95175808      -4.09283355       1.13614935
H        0.52931063      -2.66855437      -0.28202208
H        4.38035468      -7.10065622       2.62908671
H        5.81598128      -8.43693751       4.14038051
H        6.09871032      -5.07445375       6.82652680
C        6.88260051      -7.61504413       6.46234957
C        7.58164259      -8.26398232       7.20035730
Br       8.71193451      -9.31326048       8.39365337
