185
Properties=species:S:1:pos:R:3 pbc="F F F"
C        0.00000000       0.00000000       0.00000000
C        0.88156996       0.88156996      -0.88156996
C        2.00879470       0.33967952      -1.49354427
C        2.81575581       1.15271275      -2.29057910
C        2.50876086       2.50450586      -2.46245998
O        3.38124928       3.19887855      -3.25112252
C        3.47822603       4.59810856      -2.99324432
C        4.81186712       5.06129947      -3.52546003
C        5.95094665       5.01022706      -2.70982737
C        7.19596748       5.40228091      -3.20612051
C        7.32178209       5.84854085      -4.52630743
C        6.19186884       5.86930392      -5.35590293
C        4.94550100       5.47962497      -4.85576709
C        8.67461043       6.26518214      -5.00549375
O        9.66506294       5.78203062      -4.46736270
N        8.67437003       7.20739659      -6.01058120
C        9.77699881       7.80260967      -6.66993964
C       11.10391765       7.47550893      -6.39288695
C       12.13249973       8.11582724      -7.07593994
C       11.83375012       9.08004188      -8.03891852
C       10.49133774       9.41916233      -8.34117948
C       10.09968325      10.37738388      -9.30464969
C        8.75641026      10.64543469      -9.54144723
C        7.82252897       9.95136815      -8.80604291
N        8.14192700       9.03010136      -7.87355427
C        9.45194238       8.76562622      -7.64114928
C        1.36356388       3.03573142      -1.86765184
C        0.55118901       2.22316076      -1.07043898
H        2.27049609      -0.70600729      -1.35755660
H        3.69854945       0.73581030      -2.76988017
H        3.42654800       4.82183188      -1.91922628
H        2.66440654       5.13006506      -3.50079003
H        5.87776546       4.65174724      -1.68490906
H        8.07047054       5.35377026      -2.55983898
H        6.26254006       6.15243149      -6.40251064
H        4.08103275       5.48451116      -5.51695994
H        7.79063182       7.60447190      -6.31999663
H       11.36492416       6.72919762      -5.64842319
H       13.16184828       7.85388867      -6.84614126
H       10.83822060      10.92500441      -9.88456579
H        8.45234167      11.37779816     -10.28053647
H        6.75878515      10.11815163      -8.95024325
H        1.07416438       4.07115967      -2.01581075
H       -0.33589136       2.64453384      -0.60473095
C       12.95433966       9.70002382      -8.69732681
C       13.89283341      10.21925869      -9.24874374
Br      15.41029842      11.05881756     -10.14033829
C       -0.88156996      -0.88156996      -0.88156996
C       -0.35934802      -2.04767248      -1.43499798
C       -1.16720691      -2.84440571      -2.24743504
C       -2.48510284      -2.47040785      -2.52021602
O       -3.16910267      -3.32239274      -3.33975494
C       -4.22571209      -2.74212792      -4.10173890
C       -4.46880461      -3.64071117      -5.28911084
C       -3.74537929      -3.45078318      -6.47483861
C       -3.93758221      -4.30076833      -7.56601836
C       -4.85375460      -5.35543618      -7.48743959
C       -5.55467925      -5.56996546      -6.29243098
C       -5.36323138      -4.71543142      -5.20223025
C       -5.02861953      -6.23035688      -8.68630990
O       -4.09855567      -6.33741936      -9.47848124
N       -6.26864260      -6.81878038      -8.80492484
C       -6.74589100      -7.68823406      -9.81542306
C       -5.96548781      -8.11913187     -10.88769385
C       -6.51279708      -8.96386747     -11.84760236
C       -7.83913145      -9.38090244     -11.73267663
C       -8.64515756      -8.96139991     -10.64512208
C       -9.99325923      -9.34040261     -10.44805497
C      -10.71047972      -8.88498162      -9.34783084
C      -10.06739982      -8.05188317      -8.46065704
N       -8.78502950      -7.65750531      -8.60304782
C       -8.08231442      -8.10127297      -9.67513048
C       -3.01079270      -1.31426871      -1.94188573
C       -2.20480674      -0.51490951      -1.12507250
H        0.66838266      -2.34486686      -1.24556120
H       -0.76463364      -3.75552314      -2.68408314
H       -3.96735433      -1.73754351      -4.46270832
H       -5.13354625      -2.67128763      -3.49042775
H       -3.01680012      -2.64604448      -6.55157717
H       -3.36554815      -4.14044797      -8.47808366
H       -6.22895201      -6.41379448      -6.17473571
H       -5.90154466      -4.90536271      -4.27559647
H       -6.99559212      -6.58708858      -8.13241965
H       -4.93072885      -7.80997785     -11.00183827
H       -5.89396924      -9.28777025     -12.68013872
H      -10.50002395      -9.99818226     -11.14958459
H      -11.74335807      -9.17492628      -9.19239194
H      -10.57775814      -7.66726714      -7.58215475
H       -4.04297146      -1.01844613      -2.09971721
H       -2.61830993       0.38772689      -0.68279039
C       -8.33198236     -10.25019822     -12.76950971
C       -8.74474500     -10.97823344     -13.63785740
Br      -9.41214727     -12.15540482     -15.04190219
C       -0.88156996       0.88156996       0.88156996
C       -2.20198873       0.51365755       1.12637221
C       -3.00548286       1.32827703       1.92528777
C       -2.49871569       2.51340944       2.46360157
O       -3.38506448       3.23177169       3.21441419
C       -3.15402694       4.63759316       3.27795882
C       -4.46363709       5.29169466       3.64329488
C       -5.36866537       5.66317788       2.63915783
C       -6.59871117       6.23542488       2.97023285
C       -6.94402995       6.44227913       4.31032128
C       -6.05671504       6.04140761       5.31895304
C       -4.82403773       5.47183295       4.98502238
C       -8.26827370       7.06644752       4.61056511
O       -9.17779415       6.93880665       3.79785547
N       -8.32628480       7.77608131       5.78998170
C       -9.42050532       8.47808675       6.35095605
C      -10.68276144       8.52900563       5.76054647
C      -11.70342276       9.25223296       6.36861119
C      -11.46270974       9.92084800       7.56915278
C      -10.18931994       9.87302406       8.18933555
C       -9.86123474      10.51406865       9.40641342
C       -8.58505512      10.41056630       9.94767075
C       -7.65256614       9.66810019       9.25927370
N       -7.91203932       9.03955242       8.09399089
C       -9.15685369       9.13784914       7.56401504
C       -1.16718118       2.86371158       2.23605438
C       -0.35839462       2.04829868       1.43809545
H       -2.61639696      -0.39686441       0.70251285
H       -4.03817740       1.04727558       2.11878693
H       -2.81108938       5.04085340       2.31566338
H       -2.39664007       4.85891067       4.03971090
H       -5.12620447       5.49685200       1.59136528
H       -7.29056807       6.51553093       2.17798078
H       -6.31603264       6.13119444       6.37025511
H       -4.15344875       5.14966347       5.77939161
H       -7.48116390       7.88962847       6.34430798
H      -10.89768084       8.01829725       4.82656688
H      -12.68066552       9.28671662       5.89449607
H      -10.59851998      11.10033551       9.94893532
H       -8.33042638      10.89889498      10.88135494
H       -6.64036064       9.55089641       9.63592298
H       -0.73113411       3.75567198       2.67432871
H        0.67604542       2.33000397       1.25941489
C      -12.56918110      10.65086416       8.13164503
C      -13.49585088      11.26225269       8.60273228
Br     -14.99419752      12.25081623       9.36444052
C        0.88156996      -0.88156996       0.88156996
C        0.32143569      -1.96121462       1.55936817
C        1.13044516      -2.75768173       2.37092077
C        2.48886673      -2.46797386       2.51888611
O        3.17129589      -3.30931344       3.35064102
C        4.32243348      -2.75926282       3.98788262
C        4.59146933      -3.58654573       5.22061156
C        3.97722456      -3.25686644       6.43691008
C        4.19170887      -4.03878427       7.57387577
C        5.02115494      -5.16395188       7.51152355
C        5.61054505      -5.51702329       6.28950734
C        5.39721309      -4.73057005       5.15310992
C        5.22492584      -5.96161228       8.75874820
O        4.35352768      -5.93951389       9.62141470
N        6.42505087      -6.63400507       8.83329187
C        6.91537087      -7.46307171       9.87110554
C        6.19122546      -7.75449434      11.02659373
C        6.74908158      -8.56801427      12.00717106
C        8.02928572      -9.09336823      11.83005657
C        8.77691505      -8.81635084      10.65841366
C       10.07514823      -9.31144984      10.39511874
C       10.73606116      -8.99276492       9.21446610
C       10.08774915      -8.17821189       8.31397899
N        8.85176176      -7.67681566       8.51700521
C        8.20393570      -7.98704823       9.66773394
C        3.04981312      -1.40028907       1.81684495
C        2.24251641      -0.60166874       1.00060359
H       -0.73649713      -2.19097828       1.46756425
H        0.69854626      -3.60136448       2.90432917
H        4.16535761      -1.71445696       4.28779158
H        5.18309443      -2.80270762       3.30945959
H        3.31627962      -2.39485341       6.50328873
H        3.70476276      -3.76984354       8.50947348
H        6.21152276      -6.41665065       6.18930878
H        5.84737966      -5.02739721       4.20772697
H        7.11263306      -6.50791154       8.09455575
H        5.19318521      -7.35898942      11.19037035
H        6.17476889      -8.78268817      12.90442115
H       10.58613089      -9.95443526      11.10722465
H       11.73041924      -9.37198074       9.00827632
H       10.55499661      -7.89808094       7.37410248
H        4.10963078      -1.17449741       1.87700661
H        2.68424181       0.23233261       0.46146424
C        8.53716604      -9.92159570      12.89292855
C        8.96251581     -10.61523621      13.78308383
Br       9.65027041     -11.73679425      15.22238963
