190
Properties=species:S:1:pos:R:3 pbc="F F F"
C        1.77691702       1.77691702      -1.77691702
C        1.79783971       3.17653955      -1.77494858
N        2.68575339       3.66156053      -2.65078039
N        3.20063915       2.55076989      -3.22919472
C        4.23030449       2.67002298      -4.25130640
C        3.63113236       2.72362705      -5.63532995
C        3.43150257       1.54878533      -6.37558192
C        2.86684890       1.60457721      -7.65189490
C        2.50689863       2.83672283      -8.20773457
C        2.67814199       4.01066089      -7.46636863
C        3.23353541       3.95129920      -6.18583392
C        1.93920304       2.85760841      -9.58412240
O        1.21010169       1.93861160      -9.93532387
N        2.36447331       3.91545270     -10.35690464
C        2.04613808       4.20430006     -11.70635953
C        1.07590012       3.50664721     -12.42614666
C        0.82854167       3.83558506     -13.75414589
C        1.55288437       4.86035010     -14.36406097
C        2.53787553       5.58502685     -13.64694759
C        3.31911850       6.63228135     -14.18854568
C        4.26624815       7.29098467     -13.41341845
C        4.41612720       6.89279810     -12.10438585
N        3.69855457       5.89938530     -11.53942227
C        2.77660584       5.25166408     -12.29472409
C        2.69722826       1.38761769      -2.71215898
H        1.21711686       3.86678838      -1.17746107
H        4.90635813       1.81322391      -4.14852519
H        4.81760858       3.57118857      -4.03893008
H        3.70896098       0.57981632      -5.96571756
H        2.71411820       0.68732851      -8.21752864
H        2.35889591       4.97350367      -7.86037863
H        3.34324190       4.87061159      -5.61020864
H        3.08913829       4.53054411      -9.99210693
H        0.49655065       2.70714048     -11.97435156
H        0.06992288       3.28235002     -14.30322445
H        3.20044690       6.94506981     -15.22282636
H        4.86913773       8.09262400     -13.82542174
H        5.13985420       7.37275731     -11.45163152
H        3.02304851       0.41644039      -3.05530595
C        1.24441273       5.13251303     -15.74405104
C        0.98606774       5.36044949     -16.89979272
Br       0.56834573       5.72900346     -18.76852927
C       -1.77691702      -1.77691702      -1.77691702
C       -3.02423488      -1.42157130      -2.30352166
N       -3.54695880      -2.40263002      -3.04850550
N       -2.62900076      -3.39390837      -2.95769464
C       -2.84060922      -4.65173747      -3.65928718
C       -3.54493319      -5.66016764      -2.78498853
C       -2.81265803      -6.55389769      -1.98931410
C       -3.47098914      -7.47781607      -1.17451579
C       -4.86881000      -7.52716617      -1.15537987
C       -5.60719710      -6.62238169      -1.92559273
C       -4.94652825      -5.69224690      -2.73189338
C       -5.53294264      -8.54861122      -0.29937999
O       -5.02538748      -8.83597569       0.77732600
N       -6.65068604      -9.12186212      -0.86428249
C       -7.48068194     -10.14043334      -0.33568238
C       -7.36718682     -10.61335597       0.97184879
C       -8.20699281     -11.62809629       1.41681648
C       -9.15889870     -12.17244061       0.55404388
C       -9.29375727     -11.70028705      -0.77580565
C      -10.22635595     -12.19827304      -1.71531653
C      -10.29087224     -11.67746474      -3.00231430
C       -9.42108018     -10.66224331      -3.32998767
N       -8.51179956     -10.15251906      -2.47304353
C       -8.44343377     -10.66186686      -1.21769337
C       -1.52982029      -3.04853951      -2.21864514
H       -3.57565219      -0.49786545      -2.18784867
H       -1.86159275      -5.02585324      -3.98066123
H       -3.41910964      -4.44189786      -4.56671972
H       -1.72472707      -6.53746083      -1.99230697
H       -2.89400036      -8.16569684      -0.55927815
H       -6.69467770      -6.61105313      -1.88704738
H       -5.53284550      -4.97928953      -3.31192711
H       -6.88229523      -8.89913502      -1.83035907
H       -6.63691387     -10.20504842       1.66391960
H       -8.10634197     -11.98758594       2.43843056
H      -10.91202003     -13.00078997      -1.45553307
H      -11.00255618     -12.05811968      -3.72650761
H       -9.42753042     -10.21616730      -4.32054530
H       -0.70039668      -3.72456199      -2.06983618
C       -9.98247654     -13.22623846       1.08773820
C      -10.67222298     -14.10879416       1.53470720
Br     -11.78748464     -15.53581208       2.25741826
C       -1.77691702       1.77691702       1.77691702
C       -2.57466779       2.83908335       1.33557671
N       -3.24162721       3.41224187       2.34422524
N       -2.82873940       2.71974936       3.43211500
C       -3.35274631       3.04918691       4.74970065
C       -2.47811391       4.05587232       5.45610312
C       -1.43102279       3.63523284       6.28961420
C       -0.61874779       4.57234276       6.93223045
C       -0.85190605       5.94064972       6.75880025
C       -1.87715073       6.36913401       5.90888679
C       -2.68171585       5.42992616       5.25902652
C        0.01445919       6.90790615       7.48748690
O        1.19804105       6.63653934       7.64553887
N       -0.65174068       8.01072482       7.97436515
C       -0.13424817       9.08736492       8.73518458
C        1.22905668       9.26871097       8.96903970
C        1.66299155      10.34112927       9.74013490
C        0.73407122      11.23128418      10.28008247
C       -0.65473181      11.06733084      10.04778731
C       -1.66174251      11.91819594      10.56000707
C       -3.00349601      11.68364258      10.28351269
C       -3.31814185      10.60031508       9.49485423
N       -2.39739356       9.75703217       8.98293641
C       -1.08741557       9.98079368       9.25478476
C       -1.96152645       1.70436087       3.13111761
H       -2.70867424       3.22066487       0.33202720
H       -3.42457354       2.11870860       5.32482508
H       -4.37318797       3.43014232       4.62439694
H       -1.23458548       2.57620437       6.44370501
H        0.19239677       4.23605095       7.57532118
H       -2.04333681       7.42811127       5.72133013
H       -3.46434329       5.77609888       4.58361997
H       -1.66670937       8.04359847       7.90148149
H        1.97242300       8.59223807       8.55822762
H        2.72884457      10.46934425       9.91499767
H       -1.41192851      12.77283173      11.18358283
H       -3.77888565      12.33194437      10.67635346
H       -4.34987062      10.36947572       9.24489670
H       -1.55791122       1.04829359       3.88859005
C        1.26318498      12.30902853      11.07513325
C        1.70631776      13.21163942      11.74098828
Br       2.42282598      14.67108489      12.81761955
C        1.77691702      -1.77691702       1.77691702
C        2.35521369      -1.39958529       2.99452886
N        3.06404260      -2.39602167       3.53803004
N        2.95325023      -3.39579869       2.63155483
C        3.59528785      -4.67895811       2.87738791
C        4.98147262      -4.72594384       2.28267291
C        5.18501333      -5.19468079       0.97617570
C        6.46939590      -5.22576104       0.42816407
C        7.56651537      -4.80033766       1.18450299
C        7.36963717      -4.30688305       2.47865130
C        6.08272619      -4.26704751       3.02089483
C        8.92353834      -4.88052453       0.57687098
O        9.04757386      -4.65718131      -0.62071801
N        9.91361787      -5.27293620       1.45027658
C       11.28926305      -5.48158064       1.18595397
C       11.89213556      -5.14195716      -0.02539872
C       13.24603103      -5.39159256      -0.21935097
C       13.99734746      -5.98334218       0.79660579
C       13.40393656      -6.32920305       2.03671035
C       14.08964814      -6.93513672       3.11516066
C       13.42921025      -7.24262523       4.29881580
C       12.09018120      -6.93629719       4.38683276
N       11.38888731      -6.36037071       3.38810413
C       12.02970826      -6.06322590       2.23005985
C        2.16190342      -3.07267329       1.56242823
H        2.29205786      -0.45354247       3.51576597
H        2.95730521      -5.46111411       2.44968791
H        3.62361055      -4.84302758       3.96108910
H        4.34733829      -5.53580261       0.37135396
H        6.61679745      -5.58927083      -0.58709293
H        8.20284103      -3.92477608       3.06516110
H        5.93969182      -3.86163046       4.02273985
H        9.65187785      -5.57243255       2.38747892
H       11.33074439      -4.67806804      -0.83076974
H       13.70232689      -5.12248733      -1.16931686
H       15.14693684      -7.17746741       3.04393883
H       13.95050550      -7.70957818       5.12709979
H       11.52354423      -7.15253798       5.28816083
H        1.95974721      -3.77138579       0.76366185
C       15.38958884      -6.21798774       0.51340021
C       16.55559100      -6.41450339       0.27621555
Br      18.44091788      -6.73225258      -0.10729199
C       -0.00445707       0.01189536      -1.78238275
H       -0.66409135       0.67374010      -2.43557963
H        0.65740317      -0.63156657      -2.45157240
C       -0.90989263      -0.90692880      -0.91072765
C        0.90977584       0.90977584      -0.90977584
C       -0.00465871       1.77757030       0.00794375
H       -0.66225468       2.44313916      -0.64384735
H        0.64322798       2.43503045       0.67728295
C       -1.78241447       0.00034974      -0.00472694
H       -2.45427497      -0.65498947       0.64260836
H       -2.43311707       0.67328779      -0.65473579
C       -0.91132561       0.90220522       0.91563759
C       -0.01476271      -0.02253852       1.78660255
H       -0.67934791      -0.69751639       2.42135241
H        0.63392994       0.61504881       2.47327442
C        0.01484550      -1.77751727      -0.01636693
H        0.67870853      -2.42144646      -0.68295456
H       -0.62264859      -2.45592969       0.64226336
C        1.78714474       0.01002794       0.00389507
H        2.44202412       0.67113390       0.66197326
H        2.45385902      -0.65136977      -0.64189061
C        0.91606151      -0.90478549       0.90901405
