169
Properties=species:S:1:pos:R:3 pbc="F F F"
C        0.00000000       0.00000000       0.00000000
C        0.86701299       0.86701299      -0.86701299
C        0.88793569       2.26663553      -0.86504455
N        1.77584937       2.75165651      -1.74087637
N        2.29073513       1.64086586      -2.31929070
C        3.32040046       1.76011896      -3.34140238
C        2.72122834       1.81372303      -4.72542593
C        2.52159855       0.63888131      -5.46567790
C        1.95694487       0.69467318      -6.74199088
C        1.59699461       1.92681880      -7.29783054
C        1.76823797       3.10075686      -6.55646461
C        2.32363138       3.04139517      -5.27592990
C        1.02929902       1.94770439      -8.67421837
O        0.30019767       1.02870758      -9.02541984
N        1.45456928       3.00554867      -9.44700062
C        1.13623405       3.29439604     -10.79645550
C        0.16599610       2.59674318     -11.51624264
C       -0.08136235       2.92568103     -12.84424187
C        0.64298034       3.95044607     -13.45415694
C        1.62797150       4.67512283     -12.73704357
C        2.40921447       5.72237733     -13.27864166
C        3.35634413       6.38108065     -12.50351442
C        3.50622318       5.98289408     -11.19448182
N        2.78865055       4.98948128     -10.62951825
C        1.86670182       4.34176006     -11.38482006
C        1.78732423       0.47771366      -1.80225496
H        0.30721283       2.95688436      -0.26755704
H        3.99645410       0.90331989      -3.23862116
H        3.90770455       2.66128455      -3.12902605
H        2.79905695      -0.33008770      -5.05581354
H        1.80421418      -0.22257551      -7.30762462
H        1.44899189       4.06359965      -6.95047460
H        2.43333788       3.96070757      -4.70030462
H        2.17923426       3.62064008      -9.08220291
H       -0.41335338       1.79723645     -11.06444754
H       -0.83998114       2.37244599     -13.39332042
H        2.29054288       6.03516578     -14.31292234
H        3.95923370       7.18271998     -12.91551771
H        4.22995018       6.46285329     -10.54172749
H        2.11314449      -0.49346363      -2.14540193
C        0.33450871       4.22260901     -14.83414701
C        0.07616371       4.45054546     -15.98988869
Br      -0.34155829       4.81909943     -17.85862525
C       -0.86701299      -0.86701299      -0.86701299
C       -1.62147719      -0.43433212      -1.96380647
N       -2.28048210      -1.44457195      -2.54332820
N       -1.95873916      -2.51422826      -1.77792427
C       -2.48644701      -3.83107354      -2.10440124
C       -3.78004112      -4.10372445      -1.37661172
C       -3.77744277      -4.72828578      -0.12042921
C       -4.97770459      -4.96829604       0.55239169
C       -6.19509457      -4.59797125      -0.02857813
C       -6.20541968      -3.95109144      -1.26894832
C       -5.00290350      -3.70274581      -1.93530715
C       -7.45487044      -4.90132547       0.70497414
O       -7.45956810      -4.82166330       1.92690632
N       -8.49417925      -5.31356365      -0.09937568
C       -9.79931363      -5.70976838       0.28199641
C      -10.28744893      -5.57324473       1.58171174
C      -11.57509072      -5.99994023       1.88647040
C      -12.37445408      -6.56580553       0.89267626
C      -11.89839650      -6.70657390      -0.43516750
C      -12.63886065      -7.27211603      -1.49925678
C      -12.09400391      -7.37303616      -2.77389914
C      -10.81451646      -6.90328248      -2.96580013
N      -10.06491064      -6.35712779      -1.98561165
C      -10.59232937      -6.26140674      -0.73954582
C       -1.08526133      -2.21448415      -0.76754737
H       -1.72034071       0.56218708      -2.37350060
H       -1.72358884      -4.57317597      -1.84163035
H       -2.62499723      -3.88219134      -3.19082659
H       -2.84299409      -5.03001504       0.34822634
H       -4.96513234      -5.45163316       1.52750221
H       -7.13761270      -3.61029586      -1.71515758
H       -5.02262252      -3.17995833      -2.89176921
H       -8.31475888      -5.47961635      -1.08770203
H       -9.68699071      -5.13384402       2.37250411
H      -11.94190672      -5.88819897       2.90432041
H      -13.64888415      -7.64366255      -1.34608430
H      -12.65725211      -7.80831561      -3.59190368
H      -10.33858210      -6.95493147      -3.94101739
H       -0.71774877      -2.96473429      -0.08259973
C      -13.69100676      -6.99163257       1.29137461
C      -14.79361963      -7.34826272       1.62528448
Br     -16.57645138      -7.92490350       2.16518849
C       -0.86701299       0.86701299       0.86701299
C       -1.71844432       1.88325979       0.41791165
N       -2.36983270       2.46910827       1.42944127
N       -1.89342266       1.83218004       2.52528899
C       -2.38212199       2.19105981       3.84873999
C       -1.52059961       3.25343826       4.48633942
C       -0.42983741       2.90114938       5.29517096
C        0.36970530       3.88948510       5.87382913
C        0.08037274       5.24135463       5.66066206
C       -0.98944194       5.60164975       4.83436775
C       -1.78146467       4.61122590       4.24826589
C        0.93587948       6.26488195       6.32221931
O        2.13350270       6.04166903       6.44615877
N        0.24725944       7.36053471       6.79384330
C        0.75146594       8.48210881       7.49644273
C        2.11461549       8.72018082       7.67341659
C        2.53589331       9.83495246       8.38950140
C        1.59460044      10.71085150       8.93133229
C        0.20540165      10.48930235       8.75623720
C       -0.81341810      11.32217291       9.27464245
C       -2.15460005      11.03015932       9.05617983
C       -2.45696648       9.90807838       8.31855422
N       -1.52456462       9.07973116       7.80335430
C       -0.21488454       9.35966890       8.01872849
C       -1.00067395       0.83781068       2.22880822
H       -1.90191010       2.22267827      -0.59293413
H       -2.39923030       1.28040236       4.45876250
H       -3.41968714       2.53070986       3.74761815
H       -0.18923921       1.85614035       5.47940323
H        1.21497193       3.60606007       6.49817514
H       -1.20101372       6.64644988       4.61560253
H       -2.59976121       4.90434196       3.59024689
H       -0.77017781       7.35467992       6.75721952
H        2.86731842       8.05585196       7.25979708
H        3.60184113      10.00724131       8.52038509
H       -0.57324357      12.20748929       9.85789813
H       -2.93888583      11.66455690       9.45402867
H       -3.48772397       9.63174774       8.11505925
H       -0.54658526       0.22477832       2.99371920
C        2.11158671      11.83519969       9.66765174
C        2.54456272      12.77684130      10.28431928
Br       3.24464830      14.29939615      11.28141854
C        0.86701299      -0.86701299       0.86701299
C        1.51528174      -0.46399024       2.04034379
N        2.20427140      -1.46699164       2.59711921
N        2.00978806      -2.49889657       1.74220706
C        2.60635503      -3.79788250       2.01768426
C        3.96103598      -3.93283274       1.36650857
C        4.08514248      -4.46612424       0.07489104
C        5.34100791      -4.57860261      -0.52600159
C        6.48838898      -4.17082461       0.16243036
C        6.37144101      -3.61369571       1.44032272
C        5.11316959      -3.49261376       2.03517310
C        7.81195240      -4.33815472      -0.49888534
O        7.89143608      -4.17243811      -1.70954910
N        8.82253193      -4.73675622       0.34783041
C       10.17460726      -5.01833898       0.03413935
C       10.73638770      -4.75872633      -1.21613211
C       12.06815845      -5.07720844      -1.45680634
C       12.83826930      -5.65786452      -0.44855046
C       12.28695816      -5.92288957       0.83029016
C       12.99379499      -6.51205456       1.90438391
C       12.37469846      -6.73819572       3.12804503
C       11.05543729      -6.36836569       3.25979610
N       10.33534575      -5.80501242       2.26729191
C       10.93557117      -5.58720775       1.07050302
C        1.18575459      -2.18683074       0.69470752
H        1.51648994       0.50551836       2.52068266
H        1.91664645      -4.56821562       1.65353308
H        2.67635845      -3.91620988       3.10544682
H        3.20715784      -4.79491986      -0.47729491
H        5.42673521      -4.99179320      -1.52926513
H        7.24590460      -3.24458237       1.97257917
H        5.03300283      -3.03837203       3.02297521
H        8.59060311      -4.98349671       1.30797743
H       10.15980706      -4.30516115      -2.01663759
H       12.49238037      -4.87011204      -2.43670713
H       14.03537780      -6.80459942       1.79865378
H       12.91216104      -7.19202565       3.95328471
H       10.52117636      -6.51982697       4.19352763
H        0.91790928      -2.90950053      -0.06232702
C       14.20493770      -5.96695896      -0.78063194
C       15.34952248      -6.22582556      -1.05875017
Br      17.20021927      -6.64439095      -1.50844384
