194
Properties=species:S:1:pos:R:3 pbc="F F F"
C       10.01749596       2.52054128      -5.98983971
C        9.73413417       3.91784907      -5.47190548
O        8.37200689       4.02504504      -5.05713126
C        7.48407659       4.37846586      -6.02012298
O        7.75106354       4.57913020      -7.19867066
C        6.12554477       4.51096778      -5.47882997
N        5.71647957       3.97797869      -4.31627144
N        4.25499483       4.22729316      -4.23458396
C        3.41778997       3.42811470      -3.43870997
C        2.02759686       3.58883250      -3.38931413
C        1.21676707       2.78620971      -2.57362957
C        1.79170313       1.79170313      -1.79170313
C        3.16600586       1.60324932      -1.80974679
C        3.96187140       2.42409111      -2.61679998
C        3.78527437       4.81356121      -5.50696324
H        3.17858763       4.10787859      -6.08790123
C        3.08367975       6.15043550      -5.37596365
O        1.86393678       6.26541575      -5.24485393
N        3.98354374       7.17336736      -5.59536646
C        3.66576521       8.55761520      -5.42366896
C        2.59564235       8.95514738      -4.60080054
C        2.25193354      10.30370434      -4.43519842
C        2.98314025      11.28638681      -5.08888011
Br       2.51642572      13.10546685      -4.88418787
C        4.05879038      10.93086135      -5.89251298
C        4.39767677       9.57914562      -6.05083696
C        5.14300958       6.67994273      -6.15540019
O        6.09572176       7.32583963      -6.58791797
C        5.05157037       5.17523438      -6.25538726
H        5.00770133       4.87432019      -7.30691795
H       11.07803710       2.40423456      -6.23227269
H        9.42905368       2.30820828      -6.88850260
H        9.74120308       1.76867377      -5.24266495
H        9.99040864       4.67969461      -6.21659364
H       10.35356012       4.11286312      -4.59054129
H        1.53789787       4.35695750      -3.97239855
H        0.14496755       2.95838008      -2.56198923
H        3.63890795       0.83331150      -1.21065549
H        5.03857836       2.26783190      -2.61961302
H        2.01488363       8.22301700      -4.04392673
H        1.41656718      10.56261623      -3.79106681
H        4.64495908      11.68711969      -6.40741473
H        5.23788865       9.36035988      -6.70351400
C      -10.34038492      -5.12826528      -3.05922675
C       -9.42788797      -6.28907152      -3.40692923
O       -8.07979942      -5.83683734      -3.53754644
C       -7.71792714      -5.39613248      -4.76860582
O       -8.45137655      -5.33000418      -5.74748368
C       -6.30310531      -5.00503978      -4.80719743
N       -5.56316396      -4.72536813      -3.72219760
N       -4.25348200      -4.23862067      -4.22476926
C       -3.42486973      -3.41981884      -3.43992607
C       -2.21632017      -2.88573798      -3.90368534
C       -1.40060267      -2.08309545      -3.09290823
C       -1.79170313      -1.79170313      -1.79170313
C       -2.98041951      -2.30495249      -1.29362997
C       -3.77411758      -3.11778920      -2.11085571
C       -4.31328130      -4.09806628      -5.69445123
H       -4.31817618      -3.04710247      -6.00908881
C       -3.26714856      -4.88640825      -6.45652210
O       -2.17178501      -4.42341315      -6.77900830
N       -3.79629714      -6.09500223      -6.86097818
C       -3.02915982      -7.12234246      -7.49554709
C       -1.63092075      -7.17499652      -7.34567300
C       -0.85651516      -8.15863568      -7.97568546
C       -1.47281974      -9.11891425      -8.76667319
Br      -0.43484794     -10.43852514      -9.63270737
C       -2.85330230      -9.10915345      -8.91970896
C       -3.62117439      -8.12280186      -8.28368311
C       -5.16819098      -6.08820790      -6.72195362
O       -5.96018481      -6.94957534      -7.09971921
C       -5.60293832      -4.78415540      -6.09509829
H       -6.17387773      -4.19517401      -6.81988773
H      -11.36064257      -5.47818795      -2.87571385
H      -10.36471296      -4.39185452      -3.86919709
H       -9.97915404      -4.60773317      -2.16565459
H       -9.76850185      -6.80871427      -4.30948077
H       -9.44262715      -7.02121141      -2.59312596
H       -1.86677575      -3.09484371      -4.90563446
H       -0.46701842      -1.70265111      -3.49566733
H       -3.30896824      -2.09104364      -0.28286306
H       -4.70251938      -3.51632941      -1.70717449
H       -1.10817572      -6.46332299      -6.71032864
H        0.22012467      -8.15830142      -7.83207347
H       -3.35253790      -9.85602146      -9.53093414
H       -4.69367401      -8.15565846      -8.45243005
C       -1.87400967       8.77076554       7.88310174
C       -2.91512045       7.80053609       8.40823218
O       -3.21862769       6.81696297       7.41859254
C       -4.20073601       7.14135366       6.54057577
O       -4.81297763       8.20200004       6.51388674
C       -4.46895948       6.04453864       5.60184439
N       -3.62265383       5.03129371       5.35678215
N       -4.22246856       4.24569138       4.24871200
C       -3.43577792       3.43256725       3.41626947
C       -3.95386893       2.73150990       2.32036466
C       -3.14787259       1.91417475       1.51455900
C       -1.79170313       1.79170313       1.79170313
C       -1.24084638       2.46717108       2.87098451
C       -2.06285940       3.26529515       3.67460794
C       -5.41736856       4.94961805       3.73881221
H       -5.24980220       5.38060046       2.74396479
C       -6.69894199       4.14138477       3.76975214
O       -7.09272651       3.45927023       2.82220972
N       -7.40357309       4.42745782       4.92124664
C       -8.59611235       3.74000066       5.31093636
C       -8.88176981       2.45414570       4.81567476
C      -10.05419594       1.77079741       5.16584294
C      -10.96488981       2.36318588       6.03033148
Br     -12.55551388       1.45593140       6.49463517
C      -10.70484125       3.62294760       6.55437586
C       -9.52792416       4.29890456       6.20083063
C       -6.89473531       5.55720192       5.52641526
O       -7.35761396       6.15699336       6.49487204
C       -5.68698557       6.03839880       4.75680764
H       -5.90733497       6.99970131       4.28190318
H       -1.57432978       9.47770152       8.66251305
H       -2.26025409       9.33658187       7.02892860
H       -0.98623864       8.23240496       7.53389820
H       -3.81608046       8.32507005       8.74554639
H       -2.51279503       7.26809061       9.27607889
H       -5.00538469       2.78828362       2.07358560
H       -3.59995628       1.38214229       0.68323829
H       -0.18561153       2.38992452       3.10733889
H       -1.61898037       3.78737435       4.51966855
H       -8.18293577       1.93759353       4.16129806
H      -10.23272672       0.78042924       4.75709426
H      -11.40411243       4.09922589       7.23615518
H       -9.38584167       5.28702611       6.62889475
C        2.48494960      -9.98599924       6.05692810
C        3.08661825      -8.99853948       7.03873099
O        3.31239645      -7.74135111       6.40043563
C        4.50819854      -7.59888306       5.77558384
O        5.37772142      -8.45777393       5.69336906
C        4.65922226      -6.25674203       5.19937822
N        3.64035105      -5.41769722       4.95268142
N        4.22325589      -4.25142207       4.24219398
C        3.43902456      -3.42744461       3.41814546
C        3.96570640      -2.36111005       2.67892704
C        3.15657781      -1.54452297       1.87550557
C        1.79170313      -1.79170313       1.79170313
C        1.23080157      -2.83640958       2.51179082
C        2.05018608      -3.63098551       3.32159090
C        5.64449855      -4.52060934       3.94069092
H        5.81495455      -4.68925828       2.87015461
C        6.62046568      -3.49963125       4.48998197
O        7.00428833      -2.51779938       3.85211875
N        7.11653831      -3.93325308       5.70248617
C        7.96606703      -3.14227681       6.53870552
C        7.98820004      -1.73994582       6.42344442
C        8.82832171      -0.94629904       7.21621555
C        9.66198061      -1.54562790       8.15079867
Br      10.80945447      -0.48457792       9.21204805
C        9.65068729      -2.92590500       8.30557242
C        8.80504839      -3.71264224       7.50996872
C        6.81913246      -5.26618502       5.89303501
O        7.21251663      -5.99543699       6.80152575
C        5.97935912      -5.76317763       4.73965526
H        6.54866546      -6.48940708       4.15086693
H        2.23174946     -10.92539704       6.55739787
H        3.18226229     -10.20254459       5.24095768
H        1.57865906      -9.57305026       5.60083248
H        4.00403000      -9.39248170       7.49018519
H        2.38042235      -8.82044297       7.85609921
H        5.02029816      -2.12491877       2.72203699
H        3.61148869      -0.72293364       1.33091453
H        0.16933907      -3.05132796       2.46220791
H        1.59735881      -4.44524564       3.88341883
H        7.32967828      -1.22432678       5.72782229
H        8.81219987       0.13245740       7.09050776
H       10.29284694      -3.41110249       9.03554408
H        8.85068705      -4.78685553       7.66421995
C       -0.00445707       0.01189536      -1.78238275
H       -0.66409135       0.67374010      -2.43557963
H        0.65740317      -0.63156657      -2.45157240
C       -0.90989263      -0.90692880      -0.91072765
C        0.90977584       0.90977584      -0.90977584
C       -0.00465871       1.77757030       0.00794375
H       -0.66225468       2.44313916      -0.64384735
H        0.64322798       2.43503045       0.67728295
C       -1.78241447       0.00034974      -0.00472694
H       -2.45427497      -0.65498947       0.64260836
H       -2.43311707       0.67328779      -0.65473579
C       -0.91132561       0.90220522       0.91563759
C       -0.01476271      -0.02253852       1.78660255
H       -0.67934791      -0.69751639       2.42135241
H        0.63392994       0.61504881       2.47327442
C        0.01484550      -1.77751727      -0.01636693
H        0.67870853      -2.42144646      -0.68295456
H       -0.62264859      -2.45592969       0.64226336
C        1.78714474       0.01002794       0.00389507
H        2.44202412       0.67113390       0.66197326
H        2.45385902      -0.65136977      -0.64189061
C        0.91606151      -0.90478549       0.90901405
