169
Properties=species:S:1:pos:R:3 pbc="F F F"
C        0.00000000       0.00000000       0.00000000
C        5.79963579       1.83692266      -8.15953976
O        5.41211209       2.16368291      -6.83099083
C        4.87698106       3.40294080      -6.69430186
O        4.76432857       4.23103429      -7.59210270
C        4.40361577       3.64719514      -5.32620056
N        4.13169625       2.66839581      -4.44472821
N        3.30000367       3.28942323      -3.38525776
C        2.49087088       2.51867255      -2.53992486
C        1.41202578       3.04501917      -1.81682586
C        0.61058110       2.24019849      -0.99547582
C        0.88181391       0.88181391      -0.88181391
C        1.95082415       0.32645117      -1.57104273
C        2.74421779       1.14438978      -2.38322101
C        2.95368768       4.66560025      -3.78009839
H        1.90668877       4.76274050      -4.08958427
C        3.32320427       5.71352244      -2.75304266
O        2.54787723       6.11038154      -1.88242787
N        4.56872440       6.22811451      -3.05026841
C        5.27316283       7.13690082      -2.19883117
C        4.97039864       7.21897881      -0.82606362
C        5.63242756       8.11268670       0.02547447
C        6.62249159       8.94256855      -0.48259821
C        6.96024363       8.87545259      -1.82851484
C        6.29509450       7.97552281      -2.67403390
C        4.95052001       5.86531866      -4.32752770
O        5.94009736       6.24007896      -4.94940124
C        3.88127663       4.97849203      -4.93092786
H        3.36898686       5.52056615      -5.73096020
H        6.40016364       0.92358795      -8.12372896
H        6.40896033       2.62713324      -8.60988668
H        4.91101540       1.64205667      -8.76807008
H        1.16103396       4.09691474      -1.88407107
H       -0.21832529       2.69210920      -0.46061071
H        2.18295488      -0.73063530      -1.49862649
H        3.57965079       0.70136136      -2.92133393
H        4.22550419       6.56516350      -0.37714615
H        5.36406931       8.13961532       1.07782620
H        7.73604120       9.51465465      -2.24115998
H        6.58953684       7.97620736      -3.71955095
C        7.29947648       9.87082855       0.38551747
C        7.86645132      10.64824631       1.11256435
Br       8.78320169      11.90526506       2.28813766
C       -8.94169144      -3.69446483      -3.15994194
O       -7.52935698      -3.82224174      -3.05518711
C       -6.88103211      -3.84640891      -4.24678269
O       -7.41892189      -3.81974492      -5.34879875
C       -5.42313193      -3.87739871      -4.07648083
N       -4.79549200      -3.50142928      -2.94789900
N       -3.37858825      -3.27358372      -3.32251269
C       -2.52715959      -2.48835614      -2.53395256
C       -1.34173345      -1.91671604      -3.01542131
C       -0.52348077      -1.11925132      -2.20352332
C       -0.88181391      -0.88181391      -0.88181391
C       -2.04108902      -1.44277020      -0.36445883
C       -2.84471758      -2.24040397      -1.18670703
C       -3.23744876      -3.37685459      -4.78508297
H       -3.09505893      -2.40082938      -5.26312522
C       -2.18659059      -4.36824806      -5.23493072
O       -1.01774893      -4.05684432      -5.46609338
N       -2.78155874      -5.58995244      -5.47559613
C       -2.04887385      -6.78076526      -5.77925572
C       -0.69341463      -6.90394900      -5.41807744
C        0.05126419      -8.05143835      -5.71946564
C       -0.55247106      -9.10851050      -6.38667678
C       -1.89321436      -9.02910831      -6.74188840
C       -2.63301279      -7.87810124      -6.43353716
C       -4.15564157      -5.45710407      -5.53062073
O       -4.98026780      -6.31338437      -5.83592539
C       -4.52544902      -4.01551506      -5.24973245
H       -4.90215447      -3.55222467      -6.16613407
H       -9.37527299      -3.89589609      -2.17631147
H       -9.36202092      -4.41338660      -3.87057273
H       -9.20139052      -2.67115502      -3.44859661
H       -1.03045020      -2.06963947      -4.04193009
H        0.38141477      -0.69237196      -2.62343742
H       -2.34208144      -1.27249681       0.66363218
H       -3.75260406      -2.67555557      -0.77418646
H       -0.18767243      -6.11517990      -4.86496151
H        1.09444102      -8.10015655      -5.42014289
H       -2.38212631      -9.84943743      -7.26029208
H       -3.67260363      -7.86471157      -6.74797995
C        0.21044983     -10.28659895      -6.70863844
C        0.84939608     -11.27324803      -6.97828134
Br       1.88251813     -12.86857613      -7.41427110
C       -1.57726022       7.18917634       7.02966166
O       -2.04321625       6.05676948       6.30680010
C       -3.13801956       6.29466317       5.54154099
O       -3.74632846       7.35815144       5.48298565
C       -3.51303848       5.12153292       4.74244007
N       -2.67256266       4.10939805       4.46285956
N       -3.27458353       3.37941585       3.32068528
C       -2.50873853       2.54403111       2.49669865
C       -2.90524763       2.15999000       1.20863318
C       -2.10413250       1.33871569       0.40340722
C       -0.88181391       0.88181391       0.88181391
C       -0.46138504       1.22874793       2.15818509
C       -1.27494723       2.04556123       2.95132012
C       -4.44703715       4.12329186       2.82905732
H       -4.25401767       4.62903465       1.87596122
C       -5.71725494       3.30323039       2.76928404
O       -6.08292016       2.69483224       1.76293424
N       -6.43185463       3.47844288       3.93680980
C       -7.61099991       2.73610018       4.26179473
C       -7.86894867       1.49219264       3.65429975
C       -9.02430947       0.75402941       3.94130090
C       -9.94714773       1.24665263       4.85385799
C       -9.71606553       2.46184286       5.48630268
C       -8.55512994       3.19342297       5.19609828
C       -5.93927445       4.55475787       4.64933405
O       -6.40523421       5.05629646       5.66804689
C       -4.74524125       5.12947952       3.91597575
H       -5.00876514       6.10780514       3.50394293
H       -0.84027742       6.84598611       7.76121702
H       -2.38850721       7.68592798       7.57154506
H       -1.08557620       7.88892842       6.34663753
H       -3.84647432       2.50122439       0.79432107
H       -2.45061837       1.07397284      -0.59019660
H        0.48804835       0.88479104       2.55420338
H       -0.93783413       2.31420598       3.95030598
H       -7.15835146       1.05115718       2.95830521
H       -9.17955079      -0.20097297       3.44728061
H      -10.42595985       2.85934247       6.20655350
H       -8.43333705       4.14328310       5.70867500
C      -11.14190374       0.49752830       5.14535552
C      -12.14251191      -0.12986333       5.38948470
Br     -13.76041067      -1.14430252       5.78422094
C        4.36531504      -8.81384054       2.61694263
O        3.92349551      -7.51005999       2.97323032
C        4.91341478      -6.67768172       3.38312722
O        6.09417628      -6.98545987       3.50782941
C        4.41624888      -5.32043765       3.64032493
N        3.26327669      -4.84087921       3.14066437
N        3.34407327      -3.36515433       3.26545706
C        2.54073842      -2.51717655       2.49155331
C        2.83866928      -1.16602724       2.26917429
C        2.02270674      -0.35129988       1.47224878
C        0.88181391      -0.88181391       0.88181391
C        0.54559366      -2.21207328       1.09065112
C        1.36813565      -3.01095482       1.89273811
C        4.69319176      -2.98658071       3.71961386
H        5.29664072      -2.54317408       2.91919873
C        4.70609260      -2.12220405       4.96147273
O        4.72073808      -0.89122380       4.92872475
N        4.84765972      -2.92302518       6.07642241
C        4.75597493      -2.43475919       7.41816071
C        4.08239835      -1.23114685       7.70189587
C        3.99373899      -0.72205373       9.00384706
C        4.57553738      -1.41636685      10.05575411
C        5.23210187      -2.61684933       9.81525987
C        5.31363908      -3.12174900       8.50926313
C        5.23419006      -4.19812461       5.71105170
O        5.55602376      -5.12460588       6.44894792
C        5.31163742      -4.27843351       4.20062559
H        6.35807314      -4.36741477       3.89502530
H        3.48489092      -9.45360251       2.50898712
H        5.00901668      -9.24850550       3.38845807
H        4.88674161      -8.77914316       1.65525737
H        3.72305635      -0.71534137       2.70362205
H        2.29853788       0.68751850       1.32337524
H       -0.33946209      -2.64928920       0.64111896
H        1.09854568      -4.05315122       2.05064918
H        3.58293983      -0.67026773       6.91460628
H        3.46331389       0.21074974       9.17329427
H        5.68878992      -3.17506414      10.62800177
H        5.85128305      -4.05632363       8.37768848
C        4.49687611      -0.89295781      11.39495364
C        4.43099730      -0.45460273      12.51653324
Br       4.32447684       0.25418035      14.33003261
