161
Properties=species:S:1:pos:R:3 pbc="F F F"
C        0.00000000       0.00000000       0.00000000
C        5.79963579       1.83692266      -8.15953976
O        5.41211209       2.16368291      -6.83099083
C        4.87698106       3.40294080      -6.69430186
O        4.76432857       4.23103429      -7.59210270
C        4.40361577       3.64719514      -5.32620056
N        4.13169625       2.66839581      -4.44472821
N        3.30000367       3.28942323      -3.38525776
C        2.49087088       2.51867255      -2.53992486
C        1.41202578       3.04501917      -1.81682586
C        0.61058110       2.24019849      -0.99547582
C        0.88181391       0.88181391      -0.88181391
C        1.95082415       0.32645117      -1.57104273
C        2.74421779       1.14438978      -2.38322101
C        2.95368768       4.66560025      -3.78009839
H        1.90668877       4.76274050      -4.08958427
C        3.32320427       5.71352244      -2.75304266
O        2.54787723       6.11038154      -1.88242787
N        4.56872440       6.22811451      -3.05026841
C        5.27316283       7.13690082      -2.19883117
C        4.97039864       7.21897881      -0.82606362
C        5.63242756       8.11268670       0.02547447
C        6.62249159       8.94256855      -0.48259821
Br       7.51071842      10.16047675       0.65639862
C        6.96024363       8.87545259      -1.82851484
C        6.29509450       7.97552281      -2.67403390
C        4.95052001       5.86531866      -4.32752770
O        5.94009736       6.24007896      -4.94940124
C        3.88127663       4.97849203      -4.93092786
H        3.36898686       5.52056615      -5.73096020
H        6.40016364       0.92358795      -8.12372896
H        6.40896033       2.62713324      -8.60988668
H        4.91101540       1.64205667      -8.76807008
H        1.16103396       4.09691474      -1.88407107
H       -0.21832529       2.69210920      -0.46061071
H        2.18295488      -0.73063530      -1.49862649
H        3.57965079       0.70136136      -2.92133393
H        4.22550419       6.56516350      -0.37714615
H        5.36406931       8.13961532       1.07782620
H        7.73604120       9.51465465      -2.24115998
H        6.58953684       7.97620736      -3.71955095
C       -8.95452814      -3.44352749      -3.39804257
O       -7.55525699      -3.62736405      -3.22416479
C       -6.85779066      -3.73333796      -4.38309510
O       -7.34579352      -3.73326411      -5.50840793
C       -5.41150334      -3.81958492      -4.14592320
N       -4.81688427      -3.42049197      -3.00744403
N       -3.37626807      -3.27125582      -3.32716077
C       -2.52511296      -2.48873894      -2.53561639
C       -1.29537149      -1.99120363      -2.98729570
C       -0.47778329      -1.19398532      -2.17448680
C       -0.88181391      -0.88181391      -0.88181391
C       -2.08652389      -1.36819535      -0.39359881
C       -2.88907687      -2.16668202      -1.21606968
C       -3.17685680      -3.44649960      -4.77602992
H       -2.96999014      -2.50013470      -5.28888870
C       -2.15340015      -4.50169522      -5.13467400
O       -0.96278587      -4.25186221      -5.32603855
N       -2.79199570      -5.70616704      -5.34894456
C       -2.10141742      -6.94003581      -5.56744160
C       -0.76978553      -7.10524551      -5.14041002
C       -0.06537772      -8.29629134      -5.35797073
C       -0.68684998      -9.35534424      -6.00546413
Br       0.26059697     -10.96035866      -6.31503487
C       -2.00603053      -9.23419691      -6.42398362
C       -2.70570954      -8.03953661      -6.19940505
C       -4.15501033      -5.51667554      -5.47168050
O       -5.00351207      -6.34943243      -5.77663306
C       -4.47110756      -4.04923378      -5.27035518
H       -4.78653830      -3.61196873      -6.22200618
H       -9.43887478      -3.58138730      -2.42721848
H       -9.37580014      -4.17498008      -4.09520003
H       -9.15501303      -2.42403591      -3.74209321
H       -0.94723940      -2.20365654      -3.99112383
H        0.46277611      -0.82602192      -2.57114880
H       -2.42366985      -1.13879971       0.61152349
H       -3.83267551      -2.54310623      -0.82656434
H       -0.25330451      -6.31488993      -4.59961942
H        0.96062032      -8.37647857      -5.01000017
H       -2.50864032     -10.05520999      -6.92800551
H       -3.72907114      -7.99544686      -6.56077715
C       -2.14473414       5.12151154       8.52985254
O       -2.58595284       4.48183007       7.33900292
C       -3.20781362       5.30685610       6.45955399
O       -3.44518185       6.49560125       6.64668246
C       -3.55035716       4.61695473       5.20969957
N       -2.96609270       3.47585495       4.80287263
N       -3.26422462       3.35551749       3.35494256
C       -2.49488980       2.54326547       2.51131302
C       -2.46426111       2.69146516       1.11814454
C       -1.66692544       1.87353062       0.30579935
C       -0.88181391       0.88181391       0.88181391
C       -0.89660236       0.69475225       2.25696345
C       -1.70162619       1.51659778       3.05360461
C       -3.92427318       4.58686871       2.88824444
H       -3.26092877       5.21525597       2.28282879
C       -5.24661644       4.35182179       2.19133113
O       -5.35376604       4.21473944       0.97218115
N       -6.27396979       4.46770289       3.10543463
C       -7.63954380       4.16581492       2.80353610
C       -7.96883596       3.31842540       1.72817971
C       -9.29790075       3.02134104       1.40039800
C      -10.33051270       3.56478040       2.15236524
Br     -12.12621568       3.18009611       1.70848476
C      -10.04204863       4.39017353       3.23198890
C       -8.70856699       4.68016108       3.55592314
C       -5.82003370       5.05028507       4.27304760
O       -6.48440302       5.40183911       5.24333543
C       -4.33198452       5.30556538       4.15314662
H       -4.15272200       6.38241672       4.08537449
H       -1.85583012       4.34638697       9.24526346
H       -2.93778609       5.72457639       8.98361777
H       -1.26640463       5.73859585       8.31614167
H       -3.05435763       3.45784002       0.62982211
H       -1.67105728       2.03110374      -0.76776640
H       -0.29305826      -0.07229382       2.73018163
H       -1.70681192       1.36459236       4.13094182
H       -7.19252539       2.84339422       1.13189424
H       -9.50231684       2.36196890       0.56157268
H      -10.83835380       4.81986499       3.83363703
H       -8.54219418       5.34263925       4.40046172
C        6.68555888      -7.50403959       1.60649973
O        5.66589267      -6.64321695       2.09767621
C        6.06731329      -5.81356743       3.09334300
O        7.18345982      -5.80217202       3.60183372
C        5.00529140      -4.88101690       3.49070315
N        3.94721256      -4.58122887       2.71637884
N        3.37470835      -3.32998329       3.26999302
C        2.54476985      -2.50004467       2.50465377
C        2.30886282      -1.15325040       2.81175759
C        1.48809292      -0.34619921       2.01196327
C        0.88181391      -0.88181391       0.88181391
C        1.07968639      -2.21560313       0.55302853
C        1.89819641      -3.00919764       1.36443453
C        4.26223506      -2.81189582       4.32525544
H        4.82658760      -1.92913245       4.00329348
C        3.57066758      -2.56994298       5.64915881
O        3.08556731      -1.48458754       5.97053179
N        3.71191777      -3.68422511       6.45096443
C        3.05663126      -3.83885705       7.71340651
C        1.89744581      -3.09976107       8.01823419
C        1.24731694      -3.21909692       9.25322593
C        1.74417517      -4.09209572      10.21138745
Br       0.88118061      -4.24883881      11.88477714
C        2.87524010      -4.85103508       9.93793589
C        3.51859381      -4.72838452       8.69767288
C        4.67434972      -4.53186786       5.93714879
O        5.12900829      -5.54953123       6.45103805
C        5.19638491      -3.95787084       4.63644078
H        6.22606901      -3.61698685       4.77745736
H        6.21547616      -8.26038041       0.97162398
H        7.20748226      -8.01905520       2.41944279
H        7.39211448      -6.93228900       0.99673867
H        2.76907734      -0.69426949       3.67867294
H        1.34111569       0.69322965       2.28650857
H        0.61755686      -2.65687450      -0.32348528
H        2.04945482      -4.05353572       1.09935555
H        1.45306878      -2.42848885       7.28625623
H        0.35574477      -2.62786515       9.44224850
H        3.27431237      -5.54242167      10.67512178
H        4.40658137      -5.33473366       8.54398012
