182
Properties=species:S:1:pos:R:3 pbc="F F F"
C        6.70953981       2.74682669      -9.06944378
O        6.32201611       3.07358694      -7.74089485
C        5.78688508       4.31284483      -7.60420588
O        5.67423259       5.14093831      -8.50200672
C        5.31351979       4.55709916      -6.23610458
N        5.04160028       3.57829983      -5.35463224
N        4.20990769       4.19932725      -4.29516179
C        3.40077491       3.42857657      -3.44982888
C        2.32192980       3.95492319      -2.72672989
C        1.52048512       3.15010251      -1.90537984
C        1.79171794       1.79171794      -1.79171794
C        2.86072817       1.23635520      -2.48094676
C        3.65412182       2.05429380      -3.29312504
C        3.86359171       5.57550427      -4.69000242
H        2.81659279       5.67264452      -4.99948829
C        4.23310829       6.62342646      -3.66294669
O        3.45778125       7.02028556      -2.79233189
N        5.47862842       7.13801853      -3.96017243
C        6.18306686       8.04680485      -3.10873519
C        5.88030266       8.12888283      -1.73596764
C        6.54233158       9.02259073      -0.88442956
C        7.53239561       9.85247257      -1.39250223
Br       8.42062245      11.07038077      -0.25350541
C        7.87014766       9.78535662      -2.73841887
C        7.20499852       8.88542683      -3.58393793
C        5.86042404       6.77522268      -5.23743172
O        6.85000138       7.14998299      -5.85930526
C        4.79118065       5.88839605      -5.84083189
H        4.27889088       6.43047018      -6.64086423
H        7.31006766       1.83349197      -9.03363299
H        7.31886436       3.53703726      -9.51979070
H        5.82091942       2.55196070      -9.67797410
H        2.07093798       5.00681877      -2.79397509
H        0.69157874       3.60201322      -1.37051473
H        3.09285890       0.17926873      -2.40853052
H        4.48955482       1.61126539      -3.83123796
H        5.13540822       7.47506753      -1.28705018
H        6.27397333       9.04951934       0.16792218
H        8.64594523      10.42455867      -3.15106400
H        7.49944086       8.88611139      -4.62945498
C       -4.46255496      -9.86145274      -4.20180258
O       -4.24454783      -8.47315323      -4.41879684
C       -5.38013675      -7.74757504      -4.57622400
O       -6.51827741      -8.20450091      -4.59439931
C       -5.10022773      -6.31128498      -4.69521083
N       -3.95683063      -5.73698785      -4.28071386
N       -4.23996738      -4.28456646      -4.17986289
C       -3.44650474      -3.43371020      -3.39896542
C       -3.87692008      -2.17863263      -2.94803017
C       -3.06355178      -1.36148538      -2.15093031
C       -1.79171794      -1.79171794      -1.79171794
C       -1.32439700      -3.02246712      -2.23116601
C       -2.14696355      -3.82436264      -3.03021446
C       -5.67735280      -4.05069458      -4.40105102
H       -6.20983566      -3.80345052      -3.47543942
C       -5.97822788      -3.04783335      -5.49342021
O       -6.14286736      -1.84590261      -5.28162873
N       -6.17738495      -3.71387730      -6.68555713
C       -6.34268233      -3.05247452      -7.94345005
C       -5.87412062      -1.73814667      -8.13288585
C       -6.03926281      -1.06174939      -9.34833967
C       -6.67479803      -1.69478507     -10.40778731
Br      -6.91376894      -0.78463559     -12.04610409
C       -7.13330283      -2.99813922     -10.26248109
C       -6.96111413      -3.66990140      -9.04334775
C       -6.34342676      -5.06718470      -6.46246699
O       -6.64922512      -5.93007414      -7.27999037
C       -6.19115685      -5.34737343      -4.98187832
H       -7.16285596      -5.62433482      -4.56303451
H       -3.50229823     -10.37578156      -4.29911284
H       -5.15103868     -10.28389793      -4.94075571
H       -4.83977950     -10.02380269      -3.18727202
H       -4.86441878      -1.80933925      -3.19797381
H       -3.44356795      -0.40050369      -1.82003505
H       -0.33575921      -3.38034288      -1.96455605
H       -1.77395298      -4.78842331      -3.36968187
H       -5.34082057      -1.21464718      -7.34205816
H       -5.66059365      -0.04827964      -9.44669721
H       -7.62863683      -3.50964112     -11.08328994
H       -7.35211579      -4.68138358      -8.98150786
C       -3.83389724       9.81505245       4.87686060
O       -3.79923018       8.39501337       4.94225435
C       -5.01871020       7.80338149       4.88184410
O       -6.09279822       8.39347927       4.83090014
C       -4.91611474       6.33914543       4.85146337
N       -3.80051747       5.67642539       4.49758948
N       -4.22756726       4.29058294       4.18624654
C       -3.44200555       3.43913843       3.39803638
C       -3.94895113       2.30486898       2.74976278
C       -3.13802336       1.48597775       1.95196637
C       -1.79171794       1.79171794       1.79171794
C       -1.24963892       2.89867674       2.42971447
C       -2.07156350       3.70345739       3.22651976
C       -5.69826805       4.21429984       4.21653050
H       -6.13552656       4.13894123       3.21425781
C       -6.24155487       3.14218824       5.13573834
O       -6.51029783       2.00086260       4.75923829
N       -6.51264160       3.69206916       6.37210862
C       -6.90511506       2.92151950       7.51197233
C       -6.61178682       1.54630536       7.58706095
C       -7.00048530       0.76563754       8.68322902
C       -7.68901583       1.35189309       9.73646151
Br      -8.22891800       0.30321134      11.21237929
C       -7.97912722       2.71016219       9.70463373
C       -7.58353466       3.48578949       8.60503913
C       -6.49917337       5.07181411       6.30209095
O       -6.80708910       5.87043174       7.18176880
C       -6.13395024       5.49267296       4.89378540
H       -7.00944012       5.93287597       4.40790919
H       -2.84231682      10.19205016       5.14282565
H       -4.55803759      10.23562944       5.58202529
H       -4.06176791      10.13409428       3.85499203
H       -4.99456277       2.03592540       2.84124367
H       -3.57772173       0.62218348       1.46420149
H       -0.20209229       3.15806061       2.32050525
H       -1.63949918       4.57021233       3.72234665
H       -6.04537739       1.05110955       6.80103898
H       -6.75124536      -0.29167127       8.69599640
H       -8.51315293       3.18549494      10.52292002
H       -7.84969629       4.53863928       8.62667166
C        6.24635707      -2.94533076       9.33412245
O        5.97838850      -3.19751678       7.96059262
C        5.54888117      -4.45736406       7.69769056
O        5.43632966      -5.35650002       8.52434795
C        5.19208438      -4.63050898       6.28413018
N        4.90961821      -3.60959079       5.45532334
N        4.20314881      -4.20579711       4.29545082
C        3.39943553      -3.43211996       3.44762487
C        2.41647127      -3.97673889       2.61037273
C        1.61616483      -3.17043854       1.78936411
C        1.79171794      -1.79171794       1.79171794
C        2.76508538      -1.21637612       2.59656864
C        3.55901175      -2.03559810       3.40693081
C        3.93458192      -5.62862132       4.56589515
H        2.87878343      -5.82176093       4.78818124
C        4.45281656      -6.56788712       3.49877776
O        3.77234073      -6.95137668       2.54668130
N        5.70967329      -7.01500316       3.85214293
C        6.53830731      -7.80565602       2.99464356
C        6.33933458      -7.80519915       1.60061941
C        7.12465609      -8.58381200       0.74088378
C        8.13638093      -9.37827977       1.26270972
Br       9.19119981     -10.44193080       0.11137802
C        8.37316009      -9.38915232       2.63161074
C        7.58468776      -8.60411590       3.48555962
C        5.97282035      -6.72351416       5.17674393
O        6.94186161      -7.07386352       5.84356449
C        4.80031162      -5.96155977       5.75853721
H        4.27555710      -6.59678569       6.47788249
H        6.77750038      -1.99213093       9.40756132
H        6.88040943      -3.72262417       9.77265872
H        5.30521498      -2.85942929       9.88620995
H        2.24124064      -5.04568404       2.58480716
H        0.86305155      -3.63769527       1.16335987
H        2.92152583      -0.14319769       2.61593462
H        4.31905820      -1.57696453       4.03603544
H        5.58059085      -7.17316914       1.14376593
H        6.93334755      -8.55019675      -0.32797380
H        9.16408105     -10.00175608       3.05573077
H        7.80449785      -8.66285967       4.54764970
C       -0.00445707       0.01189536      -1.78238275
H       -0.66409135       0.67374010      -2.43557963
H        0.65740317      -0.63156657      -2.45157240
C       -0.90989263      -0.90692880      -0.91072765
C        0.90977584       0.90977584      -0.90977584
C       -0.00465871       1.77757030       0.00794375
H       -0.66225468       2.44313916      -0.64384735
H        0.64322798       2.43503045       0.67728295
C       -1.78241447       0.00034974      -0.00472694
H       -2.45427497      -0.65498947       0.64260836
H       -2.43311707       0.67328779      -0.65473579
C       -0.91132561       0.90220522       0.91563759
C       -0.01476271      -0.02253852       1.78660255
H       -0.67934791      -0.69751639       2.42135241
H        0.63392994       0.61504881       2.47327442
C        0.01484550      -1.77751727      -0.01636693
H        0.67870853      -2.42144646      -0.68295456
H       -0.62264859      -2.45592969       0.64226336
C        1.78714474       0.01002794       0.00389507
H        2.44202412       0.67113390       0.66197326
H        2.45385902      -0.65136977      -0.64189061
C        0.91606151      -0.90478549       0.90901405
