169
Properties=species:S:1:pos:R:3 pbc="F F F"
C        0.00000000       0.00000000       0.00000000
C        0.88211925       0.88211925      -0.88211925
C        0.35959174       1.42762721      -2.05545393
C        1.16407889       2.23139575      -2.86743607
C        2.49157374       2.48561876      -2.49727589
C        3.01328742       1.92097149      -1.32683559
C        2.20491481       1.12356594      -0.51331886
C        3.39038502       3.30107315      -3.35067338
O        4.56061827       2.95609171      -3.47453352
N        2.80620056       4.42159655      -3.92336341
N        3.54971685       5.19949641      -4.75349567
C        2.99788550       6.28692531      -5.18076509
C        3.70867570       7.20187956      -6.09090128
C        3.41347683       8.57768577      -6.02130057
O        2.45087508       9.00578731      -5.13773252
C        4.09925245       9.50010289      -6.81942545
Br       3.71086909      11.35502027      -6.69915512
C        5.08668554       9.09084009      -7.71409786
C        5.33692614       7.72122606      -7.78047053
O        6.25598467       7.15663922      -8.61316283
C        6.19168322       5.82651275      -8.39769243
C        7.05359784       4.90931905      -9.17651472
C        6.99932585       3.50600711      -8.54362542
C        5.57020169       3.11345906      -8.12176574
C        4.97850648       4.08699638      -7.07856849
C        5.23889272       5.50744388      -7.45508410
C        4.68426442       6.74995797      -7.01323371
H       -0.66615282       1.21992848      -2.35246890
H        0.75979875       2.61609934      -3.80036201
H        4.05102780       2.09914137      -1.05150877
H        2.61902166       0.69147407       0.39378558
H        1.86801086       4.71149816      -3.67669507
H        1.98604932       6.58688533      -4.85645856
H        2.42099118       9.98076642      -5.18141714
H        5.63688575       9.78352968      -8.33961182
H        8.08740046       5.26854164      -9.20404151
H        6.68631005       4.86111717     -10.20788090
H        7.64713548       3.48032978      -7.65727666
H        7.39740191       2.76969693      -9.25085381
H        5.56750587       2.09727033      -7.71120531
H        4.92843434       3.10024605      -9.01222841
H        5.44275492       3.88417128      -6.10657540
H        3.90326606       3.89749978      -6.99742824
C       -0.88211925      -0.88211925      -0.88211925
C       -0.56393860      -1.04808017      -2.23065410
C       -1.37037801      -1.85043825      -3.04209445
C       -2.49410223      -2.48481115      -2.49555501
C       -2.81590123      -2.29989516      -1.14529812
C       -2.00416837      -1.50294355      -0.33468771
C       -3.39800332      -3.31311723      -3.33101099
O       -4.60731115      -3.24435049      -3.13958186
N       -2.76493131      -4.12680946      -4.25941976
N       -3.52277453      -4.88631387      -5.09362053
C       -2.89166242      -5.70441562      -5.86949786
C       -3.61130832      -6.57089566      -6.81925256
C       -3.04837286      -7.82116260      -7.14292771
O       -1.83663740      -8.16575513      -6.59200238
C       -3.71568801      -8.71029247      -7.99280030
Br      -2.95946343     -10.40337809      -8.40220296
C       -4.95008910      -8.38748068      -8.55405371
C       -5.46829755      -7.13284565      -8.23747952
O       -6.65264344      -6.65774436      -8.71539893
C       -6.79593215      -5.41891160      -8.20104465
C       -7.98091936      -4.60507499      -8.55343726
C       -8.04685532      -3.37959365      -7.62250942
C       -6.66151958      -2.74186911      -7.40203780
C       -5.65864606      -3.72566765      -6.75975764
C       -5.72336445      -5.06677187      -7.41128438
C       -4.84936822      -6.19931748      -7.39877041
H        0.29952092      -0.54507462      -2.66069087
H       -1.13748458      -1.93847490      -4.10030062
H       -3.70171179      -2.77354054      -0.72642562
H       -2.26179535      -1.36724176       0.71232696
H       -1.75718443      -4.22303884      -4.27598082
H       -1.79315698      -5.80736465      -5.82887157
H       -1.63072359      -9.07721874      -6.87523241
H       -5.49102838      -9.05864849      -9.21035038
H       -8.90134593      -5.19151447      -8.46712321
H       -7.89052789      -4.27141860      -9.59336164
H       -8.45334111      -3.68290490      -6.64849590
H       -8.73855627      -2.63933218      -8.04006420
H       -6.75562541      -1.85410319      -6.76625291
H       -6.26927665      -2.40224504      -8.36938711
H       -5.90402747      -3.83262876      -5.69684537
H       -4.65310320      -3.30093761      -6.84415326
C       -0.88211925       0.88211925       0.88211925
C       -2.14024488       1.27697088       0.42545712
C       -2.94854170       2.08728747       1.22708154
C       -2.49043493       2.49777377       2.48625970
C       -1.21996601       2.11085707       2.93027142
C       -0.41679726       1.29506528       2.12993708
C       -3.30068729       3.38988829       3.35155596
O       -2.73307260       4.27351750       3.98465340
N       -4.65988136       3.11295343       3.37832574
N       -5.47929048       3.90990613       4.11351232
C       -6.71889634       3.55397782       4.19270175
C       -7.69768700       4.34694699       4.95682255
C       -8.78068944       3.67481099       5.55696273
O       -8.90205910       2.31734190       5.37499391
C       -9.70826280       4.36722441       6.34329358
Br     -11.14994520       3.44686835       7.16823094
C       -9.59929123       5.74123355       6.55109871
C       -8.53371174       6.38286908       5.92204190
O       -8.29516689       7.72165356       6.00896628
C       -7.19828506       7.95761657       5.25998678
C       -6.68393542       9.33812729       5.11736889
C       -5.28710000       9.29219277       4.46966561
C       -5.21584833       8.27668535       3.31289281
C       -5.53076700       6.83712593       3.77617842
C       -6.72446397       6.80560779       4.67134895
C       -7.57677587       5.74865776       5.12202247
H       -2.49218863       0.97167484      -0.55761891
H       -3.90863250       2.42372461       0.84390298
H       -0.85464073       2.44893599       3.89810124
H        0.56690221       0.99906723       2.48454512
H       -5.03943806       2.29018005       2.92658598
H       -7.08497652       2.62726058       3.71715611
H       -9.66495268       2.01443245       5.90378962
H      -10.29953006       6.30115218       7.15934501
H       -6.63066428       9.84091143       6.08840790
H       -7.36587761       9.91078103       4.47864949
H       -4.54254897       9.01456962       5.22762333
H       -5.01763920      10.29126134       4.10905211
H       -4.22008489       8.30028376       2.85561286
H       -5.93178183       8.57357532       2.53555166
H       -4.66422129       6.44694222       4.32233810
H       -5.69317112       6.21490035       2.89012261
C        0.88211925      -0.88211925       0.88211925
C        2.20461240      -1.12755870       0.51050177
C        3.01364905      -1.93725281       1.31200885
C        2.49145056      -2.49733785       2.48567999
C        1.15848458      -2.25965046       2.84295947
C        0.35393119      -1.44421297       2.04365545
C        3.30456334      -3.39383470       3.34373351
O        2.76891525      -4.37561431       3.84671393
N        4.62594692      -3.00817910       3.51703450
N        5.45033191      -3.79764098       4.25473604
C        6.64148578      -3.34833070       4.47575943
C        7.62126087      -4.12318938       5.25700629
C        8.58482509      -3.42053329       6.00710479
O        8.59693259      -2.04676581       5.95069651
C        9.50277490      -4.10189344       6.81411244
Br      10.78096204      -3.14347379       7.84060865
C        9.50232240      -5.49339191       6.89590919
C        8.55568300      -6.16169780       6.12124193
O        8.43351645      -7.51804158       6.07422870
C        7.42890070      -7.77547274       5.21151497
C        7.05596226      -9.17532561       4.90814374
C        5.71959807      -9.18722434       4.14213597
C        5.65290476      -8.08017283       3.07234890
C        5.79584012      -6.66751619       3.68071504
C        6.90294806      -6.61819970       4.68027294
C        7.61503089      -5.53929671       5.29312850
H        2.60801927      -0.70582682      -0.40760153
H        4.02894605      -2.15624699       0.99106706
H        0.74605152      -2.71364285       3.74198357
H       -0.67873404      -1.26471714       2.33072705
H        4.96539644      -2.11896221       3.17184544
H        6.96008907      -2.35492140       4.11438274
H        9.28237080      -1.73070163       6.57010231
H       10.19746164      -6.04601333       7.51655229
H        6.96791626      -9.76705095       5.82501640
H        7.83802245      -9.62866330       4.28862238
H        4.89231161      -9.04272886       4.84970146
H        5.57314188     -10.16830814       3.67650264
H        4.70500479      -8.14497315       2.52600356
H        6.45516056      -8.24440938       2.34133886
H        4.85490127      -6.40221794       4.17638239
H        5.97423645      -5.95589868       2.86805894
