181
Properties=species:S:1:pos:R:3 pbc="F F F"
C        0.00000000       0.00000000       0.00000000
C        0.88003516       0.88003516      -0.88003516
C        1.98569452       0.34023605      -1.52061838
C        2.79441891       1.15351884      -2.32899667
C        2.52462379       2.52105903      -2.51703048
C        1.39047845       3.03014979      -1.85848014
C        0.57794828       2.22381647      -1.04709969
N        3.34674941       3.34909705      -3.35629538
C        3.20394491       4.71592071      -3.49822540
O        2.47675569       5.48688464      -2.88314013
C        4.13647708       5.19472129      -4.58139692
H        4.69547032       6.07549661      -4.24984434
O        3.36029919       5.51325505      -5.72795566
N        3.68599081       4.57706770      -6.72423821
C        2.66544714       4.03709463      -7.52222197
C        2.90336186       3.05435634      -8.49470647
C        1.86352126       2.53482224      -9.27456050
C        0.56293728       3.00108952      -9.10767985
C        0.30453068       3.99311284      -8.16934605
C        1.34746820       4.50792973      -7.39320534
C        4.86132345       3.77943453      -6.36305007
H        4.68875741       2.71376945      -6.56228871
C        6.10064665       4.20992413      -7.13426856
C        6.27299103       5.51558228      -7.62230833
C        7.43016315       5.87200967      -8.31934714
C        8.43583176       4.93147900      -8.53484054
C        8.28058826       3.63691531      -8.04810688
Br       9.64177932       2.35698680      -8.33859762
C        7.12835315       3.27365506      -7.34904935
C        5.01973622       4.02784695      -4.88103455
H        6.04737314       4.16734119      -4.52662970
C        4.41006941       2.90059802      -4.10926225
O        4.88739636       1.77439368      -4.18950558
H        2.23537487      -0.71214278      -1.40541779
H        3.64097311       0.65840511      -2.79354327
H        1.07959999       4.06575992      -1.95775688
H       -0.28878564       2.66284573      -0.55813002
H        3.90718462       2.68593146      -8.68280132
H        2.07498204       1.77224415     -10.01985672
H       -0.24355932       2.60114518      -9.71560934
H       -0.70431891       4.37423484      -8.03922017
H        1.11568309       5.28920214      -6.67238795
H        5.49759049       6.26756458      -7.47981660
H        7.54185991       6.88429384      -8.70125609
H        9.32939770       5.21674255      -9.08350909
H        7.02597803       2.25603970      -6.97562718
C       -0.88003516      -0.88003516      -0.88003516
C       -2.05930068      -0.37730249      -1.40994578
C       -2.86770919      -1.19058736      -2.21863787
C       -2.52433209      -2.52156145      -2.51681977
C       -1.31744365      -2.99292136      -1.96874338
C       -0.50459504      -2.18648702      -1.15778238
N       -3.34725290      -3.34847484      -3.35641411
C       -3.12719388      -4.69039023      -3.60050691
O       -2.31165942      -5.44756136      -3.08755968
C       -4.09912795      -5.16153662      -4.65193072
H       -4.57648865      -6.09797283      -4.34634978
O       -3.38450283      -5.35200331      -5.86500376
N       -3.83701484      -4.37839940      -6.77188247
C       -2.91024873      -3.71974722      -7.59476780
C       -3.27672438      -2.69530978      -8.48039052
C       -2.32819440      -2.05684650      -9.28786311
C       -0.99202849      -2.44265588      -9.23702229
C       -0.60689574      -3.47274467      -8.38734917
C       -1.55906572      -4.10648569      -7.58305187
C       -5.03354504      -3.68795200      -6.28231100
H       -4.94369358      -2.60239478      -6.41872721
C       -6.29264295      -4.15201233      -7.00018407
C       -6.41397392      -5.43243743      -7.56447029
C       -7.59094837      -5.82188894      -8.20868265
C       -8.66722807      -4.94058851      -8.29433471
C       -8.56230093      -3.67229673      -7.73101280
Br     -10.01942676      -2.47264375      -7.84529322
C       -7.39054137      -3.27651010      -7.08400608
C       -5.07381007      -4.04111174      -4.81369593
H       -6.06369489      -4.27310582      -4.40454332
C       -4.48621280      -2.92653578      -4.00718109
O       -5.03911645      -1.83285495      -3.97932422
H       -2.36744077       0.64594649      -1.20715560
H       -3.77408859      -0.72587591      -2.59295698
H       -0.94835927      -3.99630381      -2.15845372
H        0.41995345      -2.59554433      -0.75659923
H       -4.31261993      -2.38522161      -8.57807586
H       -2.63865772      -1.26434778      -9.96407741
H       -0.25637033      -1.95025999      -9.86656488
H        0.43084709      -3.79141403      -8.34856916
H       -1.22884643      -4.91463495      -6.93379180
H       -5.58403289      -6.13711671      -7.52382206
H       -7.66343259      -6.81288176      -8.65109550
H       -9.57615598      -5.25064132      -8.80285204
H       -7.32826079      -2.28030423      -6.64907990
C       -0.88003516       0.88003516       0.88003516
C       -0.41788614       2.11341185       1.31525096
C       -1.23014581       2.92045343       2.12633517
C       -2.51797163       2.51954569       2.52519599
C       -2.95502762       1.26691899       2.05716177
C       -2.14810438       0.45341854       1.24734151
N       -3.35337723       3.35378938       3.34497523
C       -4.57878849       2.97839255       3.86090998
O       -5.12514597       1.88177512       3.83985937
C       -5.21686505       4.17289870       4.52283153
H       -5.59725924       3.90887500       5.51467702
O       -6.28127600       4.62352479       3.69670911
N       -5.91245278       5.88240567       3.19243826
C       -6.18163270       6.19274074       1.85039031
C       -5.79018042       7.40319096       1.25905330
C       -6.07294914       7.68296208      -0.08300722
C       -6.76940819       6.76099294      -0.85869447
C       -7.19159202       5.56532568      -0.28992813
C       -6.90587136       5.29155497       1.05117694
C       -4.72402301       6.41496381       3.86482122
H       -4.00908914       6.81927351       3.13645293
C       -5.07428946       7.52233757       4.84821232
C       -6.32417858       7.60295415       5.48374891
C       -6.60281151       8.63217150       6.38653696
C       -5.63543257       9.59368061       6.67303812
C       -4.38995254       9.51916894       6.05648896
Br      -3.07438956      10.82174912       6.44122505
C       -4.10324817       8.49285142       5.15495797
C       -4.14467766       5.21189705       4.57204301
H       -3.76697347       5.38885627       5.58551430
C       -3.03403571       4.62954508       3.75634888
O       -2.01125642       5.27698348       3.56305572
H        0.57149752       2.46670540       1.03344200
H       -0.79696418       3.86887233       2.42708497
H       -3.94171919       0.87558027       2.28581733
H       -2.52981493      -0.50759205       0.90996723
H       -5.27499642       8.16562721       1.83529377
H       -5.75632988       8.62792709      -0.51717405
H       -6.99268679       6.97956107      -1.89905266
H       -7.74730190       4.84363475      -0.88180055
H       -7.25604002       4.35069896       1.47053421
H       -7.10354771       6.87259893       5.26882502
H       -7.58034190       8.68670593       6.86036202
H       -5.86389786      10.39382589       7.37192559
H       -3.12271270       8.45146455       4.68346768
C        0.88003516      -0.88003516       0.88003516
C        0.33468875      -1.97090215       1.54095806
C        1.14743082      -2.77818468       2.35131892
C        2.51880644      -2.51861707       2.52528980
C        3.03722938      -1.40935681       1.83252219
C        2.23071222      -0.59633641       1.02181580
N        3.35212689      -3.35482877       3.34518618
C        4.67574642      -3.09681655       3.64552806
O        5.34583954      -2.10064627       3.40029466
C        5.24789739      -4.27827592       4.38642197
H        5.79583874      -3.94973755       5.27523498
O        6.11899814      -4.97556741       3.50694436
N        5.52804236      -6.22184995       3.23740440
C        5.56216754      -6.73219071       1.93040549
C        4.94260209      -7.93853836       1.57128423
C        4.99387634      -8.42080935       0.25821831
C        5.68190379      -7.71156874      -0.72176587
C        6.32658153      -6.52693403      -0.38652599
C        6.27152483      -6.05025258       0.92682586
C        4.39072961      -6.49139654       4.12168190
H        3.53442646      -6.87711286       3.55327625
C        4.73701304      -7.50617645       5.20164985
C        6.04491773      -7.68451145       5.68145246
C        6.31910040      -8.62237062       6.68004895
C        5.29032407      -9.39272430       7.21910293
C        3.98869755      -9.21864713       6.75826577
Br       2.58956476     -10.26196929       7.48582969
C        3.70640769      -8.28232682       5.76232305
C        4.07269378      -5.13932429       4.71659967
H        3.82440616      -5.13290617       5.78403170
C        2.93831947      -4.51065703       3.97095317
O        1.82580954      -5.02450135       4.00098472
H       -0.72101276      -2.21172227       1.43794037
H        0.64684288      -3.61014140       2.83593720
H        4.08744264      -1.13741892       1.87825523
H        2.67710356       0.25076585       0.50585240
H        4.42398251      -8.54185348       2.31008141
H        4.50329560      -9.35757547       0.00621184
H        5.72544457      -8.08766498      -1.73991435
H        6.87768575      -5.97135726      -1.13990691
H        6.79242212      -5.12415386       1.16069721
H        6.87050240      -7.10537821       5.26909106
H        7.33975121      -8.75637781       7.03128083
H        5.51469154     -10.12390536       7.99105244
H        2.68150126      -8.16050939       5.41563428
