117
Properties=species:S:1:pos:R:3 pbc="F F F"
C        0.00000000       0.00000000       0.00000000
O        4.45612111       2.54168209       0.53321206
C        4.10675112       2.78602432      -0.61652044
C        2.85950420       2.23050146      -1.18726770
C        2.05824113       1.41791201      -0.37162101
C        0.88131932       0.88131932      -0.88131932
C        0.50086787       1.14318456      -2.19434262
C        1.30201684       1.95223262      -3.00802904
C        2.48794715       2.51092997      -2.51400291
O        3.32307520       3.32134388      -3.24027930
C        2.91911093       3.65407833      -4.57015064
C        3.90625528       4.62212964      -5.17903876
C        5.26313940       4.28482894      -5.29497663
C        6.16214832       5.16040481      -5.91017578
C        5.70816872       6.37771167      -6.41345107
C        4.36557361       6.73054585      -6.30233711
C        3.46783519       5.85469409      -5.68762990
H        4.71877631       3.43191265      -1.26719893
H        2.35827787       1.21180897       0.65382918
H       -0.41826036       0.72323917      -2.59716706
H        0.96227311       2.12150303      -4.02523974
H        1.92509227       4.11728094      -4.55099684
H        2.89152026       2.75362200      -5.19645570
H        5.62625787       3.33372687      -4.91009848
H        7.20947820       4.88226667      -5.99545262
H        4.00702574       7.67902718      -6.69386999
H        2.42106485       6.14261196      -5.61441480
C        6.63049889       7.27497402      -7.05984673
C        7.40295040       8.02643123      -7.60120310
Br       8.65193917       9.24147399      -8.47653056
O        0.68839733      -3.05449552      -4.09849296
C       -0.51505712      -3.12131227      -3.87292649
C       -1.14010562      -2.38634967      -2.75081807
C       -0.32178409      -1.58259928      -1.94339077
C       -0.88131932      -0.88131932      -0.88131932
C       -2.24414626      -0.97860724      -0.61564155
C       -3.05940723      -1.78245217      -1.42041910
C       -2.51979391      -2.49179347      -2.50129264
O       -3.24922550      -3.29178093      -3.34369195
C       -4.66041711      -3.35579066      -3.12713214
C       -5.30588675      -4.20295742      -4.19857950
C       -4.91603833      -5.53703955      -4.38986709
C       -5.55519177      -6.33345789      -5.34407925
C       -6.58839900      -5.79959209      -6.11134037
C       -6.98464731      -4.47583564      -5.93797363
C       -6.34548303      -3.68080282      -4.98387333
H       -1.17423767      -3.73910534      -4.50454488
H        0.74395045      -1.50961686      -2.15059126
H       -2.68499687      -0.43300348       0.21585448
H       -4.11435229      -1.82702848      -1.16763510
H       -5.08704391      -2.34590069      -3.16042545
H       -4.87602502      -3.81249278      -2.15308015
H       -4.11389623      -5.96479609      -3.79139090
H       -5.24373648      -7.36633048      -5.47713053
H       -7.79044390      -4.05537270      -6.53410631
H       -6.67120150      -2.65043526      -4.85645486
C       -7.25720782      -6.62278962      -7.08532220
C       -7.81733521      -7.31221755      -7.90103198
Br      -8.72301382      -8.42696419      -9.21996570
O       -0.31709594       1.12373737       5.02375784
C       -1.22593990       1.76977714       4.51357885
C       -1.48223734       1.73862012       3.05641590
C       -0.66445935       0.92958474       2.25373006
C       -0.88131932       0.88131932       0.88131932
C       -1.89982899       1.63430548       0.30426059
C       -2.71381581       2.44285260       1.10561009
C       -2.51980905       2.50124784       2.49182313
O       -3.27809324       3.25828663       3.34831850
C       -4.36882992       3.98979393       2.78471606
C       -5.14164743       4.68448213       3.88129411
C       -4.50791137       5.59731223       4.73772137
C       -5.23892180       6.27976514       5.71404198
C       -6.60804822       6.05320808       5.83807516
C       -7.25206925       5.14680481       4.99958251
C       -6.52069890       4.46549653       4.02396375
H       -1.88504903       2.40160681       5.13123205
H        0.13315482       0.34355011       2.70586238
H       -2.07100005       1.60065738      -0.76951157
H       -3.49056785       3.01310371       0.60534432
H       -5.03827192       3.30471759       2.25038055
H       -3.99691121       4.75394162       2.09074512
H       -3.43992429       5.78533940       4.64481954
H       -4.73350858       6.98664167       6.36704724
H       -8.32005002       4.96726462       5.09260827
H       -7.04000666       3.76534343       3.37274153
C       -7.36523846       6.76571315       6.83436803
C       -7.99938529       7.36243614       7.66876330
Br      -9.02474707       8.32728676       9.01790988
O        4.71814346      -2.05972307      -0.31327539
C        4.29189784      -2.44870546       0.76869259
C        2.94859029      -2.06885076       1.25983231
C        2.14750115      -1.25492524       0.44534775
C        0.88131932      -0.88131932       0.88131932
C        0.41118353      -1.30683937       2.12037215
C        1.21198330      -2.11707015       2.93322506
C        2.48787891      -2.51332757       2.51167354
O        3.33043087      -3.31306995       3.24119756
C        2.84256195      -3.81263300       4.48814496
C        3.86219123      -4.74298730       5.10224515
C        5.16229211      -4.29700646       5.38364640
C        6.08476297      -5.14438155       6.00358440
C        5.71107131      -6.44217470       6.34608546
C        4.42624474      -6.90272989       6.06948193
C        3.50496036      -6.05501518       5.45018364
H        4.90379861      -3.09815273       1.41593655
H        2.51739395      -0.92076039      -0.52189667
H       -0.57817592      -1.01466586       2.46565592
H        0.79980982      -2.41752660       3.89167946
H        1.90579685      -4.36005216       4.32752104
H        2.66811484      -2.98566811       5.18781499
H        5.46184461      -3.28308870       5.12514991
H        7.08686588      -4.78209892       6.21823268
H        4.13035330      -7.91430166       6.33526794
H        2.50329420      -6.42814445       5.24665297
C        6.65598360      -7.31203978       6.99729626
C        7.44734764      -8.04055178       7.54268531
Br       8.72691637      -9.21849407       8.42453327
