109
Properties=species:S:1:pos:R:3 pbc="F F F"
C        0.00000000       0.00000000       0.00000000
O       -0.36325840       4.67044850      -2.17709735
C        0.74209795       4.26020792      -2.51815012
C        1.23770027       2.93055299      -2.10213743
C        0.42607287       2.13221841      -1.28581084
C        0.88139322       0.88139322      -0.88139322
C        2.14042102       0.42884639      -1.27121989
C        2.94917145       1.22616826      -2.08759678
C        2.49443386       2.47357962      -2.52926759
O        3.22163092       3.30236181      -3.33895226
C        4.16044402       2.68008431      -4.21635139
C        4.35628104       3.60102189      -5.39369149
C        5.36762703       4.57172847      -5.38799900
C        5.52627831       5.43487549      -6.47462441
C        4.67133260       5.34313675      -7.57290522
C        3.65506072       4.39078524      -7.57699234
Br       2.48652852       4.27041299      -9.05839572
C        3.49020470       3.52569385      -6.49566835
H        1.40329865       4.87695624      -3.14828060
H       -0.55248742       2.49142091      -0.97378322
H        2.50344416      -0.54243623      -0.94262467
H        3.93376640       0.85223609      -2.35325984
H        3.80203728       1.71010368      -4.58533914
H        5.11012601       2.52517901      -3.69066283
H        6.03492577       4.66644818      -4.53364648
H        6.31405617       6.18427985      -6.46284358
H        4.80071904       6.02014511      -8.41310613
H        2.68515428       2.79418866      -6.50456532
O       -4.12881469       0.67477030      -3.03024306
C       -3.88212649      -0.52465055      -3.11367896
C       -2.75675251      -1.13774174      -2.37589645
C       -1.94755978      -0.31986945      -1.57667289
C       -0.88139322      -0.88139322      -0.88139322
C       -0.60853278      -2.24376473      -0.98818979
C       -1.41815388      -3.05958887      -1.78519375
C       -2.51330968      -2.51728397      -2.46668743
O       -3.35696343      -3.25303415      -3.25294740
C       -3.50300833      -4.63373542      -2.92013596
C       -4.85465720      -5.07728906      -3.41904817
C       -5.00615926      -5.61748285      -4.70371238
C       -6.26658979      -6.00462530      -5.16456312
C       -7.38864545      -5.84777376      -4.35095537
C       -7.24602756      -5.29720705      -3.07960369
Br      -8.76573210      -5.07193842      -1.97766671
C       -5.99092654      -4.90804331      -2.61259705
H       -4.49652035      -1.18449712      -3.74751801
H       -2.15571409       0.74556375      -1.50256637
H        0.23424746      -2.68069394      -0.45718613
H       -1.16285947      -4.11241640      -1.86398646
H       -3.45506235      -4.80562197      -1.83679578
H       -2.70834721      -5.21547223      -3.40214842
H       -4.14373895      -5.73429803      -5.35698345
H       -6.37533603      -6.42393904      -6.16190453
H       -8.36577562      -6.14977040      -4.71842426
H       -5.89351694      -4.46768268      -1.62270864
O        0.49323728       4.51311339       2.46441134
C       -0.65128791       4.15021310       2.71895498
C       -1.19458148       2.87708014       2.19872908
C       -0.38194090       2.07896274       1.38319848
C       -0.88139322       0.88139322       0.88139322
C       -2.18429834       0.48264463       1.17354433
C       -2.99413048       1.27958089       1.98922514
C       -2.49763611       2.47171590       2.52792906
O       -3.22404357       3.29559143       3.34330999
C       -4.24582722       2.68182101       4.12923148
C       -4.45909140       3.54595561       5.34594742
C       -5.41296351       4.57319936       5.34119162
C       -5.58704107       5.38257942       6.46615773
C       -4.80447565       5.18002193       7.60287700
C       -3.84458150       4.17087300       7.60738381
Br      -2.77354195       3.90011177       9.14168351
C       -3.66473864       3.35889654       6.48793172
H       -1.31312924       4.76882981       3.34657642
H        0.63166745       2.39682836       1.14755580
H       -2.58070460      -0.44592117       0.76884918
H       -4.01184780       0.94995947       2.17745506
H       -3.96405580       1.67349790       4.45992640
H       -5.17012479       2.61234836       3.54349472
H       -6.02265501       4.75418000       4.45818542
H       -6.32999135       6.17645224       6.45473601
H       -4.94523534       5.81581947       8.47291547
H       -2.90341020       2.58200996       6.49848810
O        4.67580989       0.35796268       2.16644025
C        4.26433818      -0.74617762       2.50994019
C        2.93913541      -1.24617757       2.08507772
C        2.13316311      -0.42700600       1.28393301
C        0.88139322      -0.88139322       0.88139322
C        0.42338617      -2.13502768       1.28207346
C        1.22968018      -2.95264035       2.08061597
C        2.50398217      -2.52446402       2.46883488
O        3.35381439      -3.27245325       3.23667735
C        3.21713226      -4.69091371       3.14883374
C        4.55174397      -5.29535778       3.50389267
C        4.85396916      -5.64641057       4.82697477
C        6.10183798      -6.18507121       5.14886902
C        7.06271371      -6.36984657       4.15481429
C        6.77321472      -6.00830799       2.84131559
Br       8.07662857      -6.24612202       1.49258664
C        5.52968182      -5.46964595       2.51223913
H        4.87524609      -1.40160945       3.15167995
H        2.48802541       0.55584133       0.98053263
H       -0.56154946      -2.48456505       0.98061702
H        0.83194749      -3.91372632       2.39358852
H        2.94143887      -5.01828994       2.13775129
H        2.44534093      -5.03126586       3.84936108
H        4.12123317      -5.49638906       5.61739819
H        6.32787443      -6.45589188       6.17741329
H        8.03171753      -6.78765184       4.41460090
H        5.31932729      -5.17936265       1.48521831
