138
Properties=species:S:1:pos:R:3 pbc="F F F"
O        0.54664563       5.58035252      -3.08700138
C        1.65200197       5.17011194      -3.42805415
C        2.14760430       3.84045702      -3.01204146
C        1.33597689       3.04212244      -2.19571486
C        1.79129725       1.79129725      -1.79129725
C        3.05032505       1.33875042      -2.18112391
C        3.85907548       2.13607229      -2.99750081
C        3.40433789       3.38348364      -3.43917162
O        4.13153494       4.21226583      -4.24885629
C        5.07034804       3.58998833      -5.12625542
C        5.26618507       4.51092592      -6.30359551
C        6.27753105       5.48163249      -6.29790303
C        6.43618233       6.34477952      -7.38452844
C        5.58123663       6.25304078      -8.48280924
C        4.56496475       5.30068926      -8.48689637
C        4.40010873       4.43559787      -7.40557238
H        2.31320267       5.78686026      -4.05818462
H        0.35741661       3.40132493      -1.88368725
H        3.41334819       0.36746780      -1.85252870
H        4.84367043       1.76214011      -3.26316387
H        4.71194131       2.62000770      -5.49524316
H        6.02003004       3.43508304      -4.60056686
H        6.94482979       5.57635220      -5.44355050
H        7.22396020       7.09418387      -7.37274761
H        5.71062306       6.93004913      -9.32301016
H        3.59505830       3.70409269      -7.41446935
C        3.67495505       5.20900803      -9.61520363
C        2.92957192       5.13222500     -10.56016097
Br       1.72435045       5.00807334     -12.08807706
O       -5.25784542      -0.32003346      -3.63612063
C       -4.94515118      -1.49393151      -3.81108538
C       -3.73983174      -2.07689915      -3.18337188
C       -2.93180217      -1.25845949      -2.38355253
C       -1.79129725      -1.79129725      -1.79129725
C       -1.44420658      -3.12442465      -2.00156814
C       -2.25264390      -3.94098544      -2.79901923
C       -3.41998186      -3.42998365      -3.37702764
O       -4.26645814      -4.16961359      -4.15658533
C       -4.30732618      -5.57439116      -3.90487445
C       -5.65900016      -6.07288851      -4.34881782
C       -5.85979236      -6.54324808      -5.65402613
C       -7.12156091      -6.98199392      -6.06193546
C       -8.19649759      -6.94682192      -5.17376714
C       -8.00603489      -6.46589725      -3.88061824
C       -6.74930193      -6.02585118      -3.46612586
H       -5.55805245      -2.15242906      -4.44776604
H       -3.19863217      -0.21499293      -2.22880368
H       -0.54427585      -3.53758376      -1.55148507
H       -1.93991775      -4.96858729      -2.96046937
H       -4.17967373      -5.80785298      -2.83966546
H       -3.51161184      -6.07380361      -4.47026449
H       -5.03560598      -6.56487018      -6.36425634
H       -7.26861149      -7.34652314      -7.07575704
H       -9.17520699      -7.28820099      -5.50027438
H       -6.61529131      -5.64063504      -2.45769398
C       -9.11549718      -6.41988054      -2.96378899
C      -10.04467185      -6.38134155      -2.19594449
Br     -11.54706871      -6.31902726      -0.95440487
O       -2.01203221       5.94472991       1.25723740
C       -2.67601092       5.42502860       2.14912855
C       -2.63750019       3.96741356       2.39518902
C       -1.83303674       3.16505778       1.57571967
C       -1.79129725       1.79129725       1.79129725
C       -2.55362621       1.21248502       2.80408815
C       -3.35518176       2.01483081       3.62263600
C       -3.38516870       3.40178876       3.44003568
O       -4.13292300       4.25156321       4.20817085
C       -4.40750938       3.83361839       5.54546402
C       -4.63667500       5.07595435       6.36807715
C       -5.92396043       5.60838610       6.52472003
C       -6.12239679       6.77259852       7.27049498
C       -5.03681942       7.42111221       7.85915502
C       -3.75381948       6.90503872       7.69369218
C       -3.54771686       5.74327754       6.95028458
H       -3.32676485       6.03478628       2.79669642
H       -1.24640092       3.61734297       0.77868490
H       -2.53347914       0.13664914       2.96321641
H       -3.95391281       1.52800010       4.38706149
H       -3.57188547       3.27195947       5.98334723
H       -5.30069962       3.19776224       5.55721808
H       -6.78053946       5.12315916       6.06103388
H       -7.12430178       7.17839842       7.38819147
H       -5.20017044       8.32754928       8.43596263
H       -2.53974899       5.35645438       6.81741696
C       -2.62972458       7.57684396       8.29259817
C       -1.68829511       8.13948085       8.79418194
Br      -0.16608327       9.04921711       9.60520046
O        5.78817357      -0.81914618       2.60667978
C        5.31568776      -1.84288491       3.09159539
C        3.91614352      -2.24684648       2.83711277
C        3.11181627      -1.42736132       2.03463660
C        1.79129725      -1.79129725       1.79129725
C        1.26497713      -2.95359152       2.35163073
C        2.06950771      -3.77179422       3.15134664
C        3.40863234      -3.43731354       3.38104727
O        4.25951142      -4.19348462       4.13966102
C        3.98933263      -5.59397903       4.20328012
C        5.29319028      -6.29191115       4.49560507
C        5.69078119      -6.55177246       5.81451292
C        6.91126545      -7.17897392       6.07525091
C        7.75020597      -7.54435991       5.02252077
C        7.36709808      -7.27449557       3.71095673
C        6.15021039      -6.64835479       3.44271380
H        5.92564842      -2.49518544       3.73741369
H        3.52132103      -0.51475872       1.60634903
H        0.22814969      -3.23067054       2.17452445
H        1.62037783      -4.65778791       3.59080867
H        3.58819537      -5.98145503       3.25754177
H        3.26246250      -5.79368534       4.99953209
H        5.05500321      -6.26122296       6.64850633
H        7.21170099      -7.37805180       7.10113888
H        8.69894736      -8.03005000       5.23468499
H        5.86719860      -6.43138097       2.41504076
C        8.23470697      -7.64233289       2.62212684
C        8.96132942      -7.95039665       1.71023182
Br      10.13621647      -8.44850969       0.23577469
C       -0.00445707       0.01189536      -1.78238275
H       -0.66409135       0.67374010      -2.43557963
H        0.65740317      -0.63156657      -2.45157240
C       -0.90989263      -0.90692880      -0.91072765
C        0.90977584       0.90977584      -0.90977584
C       -0.00465871       1.77757030       0.00794375
H       -0.66225468       2.44313916      -0.64384735
H        0.64322798       2.43503045       0.67728295
C       -1.78241447       0.00034974      -0.00472694
H       -2.45427497      -0.65498947       0.64260836
H       -2.43311707       0.67328779      -0.65473579
C       -0.91132561       0.90220522       0.91563759
C       -0.01476271      -0.02253852       1.78660255
H       -0.67934791      -0.69751639       2.42135241
H        0.63392994       0.61504881       2.47327442
C        0.01484550      -1.77751727      -0.01636693
H        0.67870853      -2.42144646      -0.68295456
H       -0.62264859      -2.45592969       0.64226336
C        1.78714474       0.01002794       0.00389507
H        2.44202412       0.67113390       0.66197326
H        2.45385902      -0.65136977      -0.64189061
C        0.91606151      -0.90478549       0.90901405
