130
Properties=species:S:1:pos:R:3 pbc="F F F"
O        0.54664563       5.58035252      -3.08700138
C        1.65200197       5.17011194      -3.42805415
C        2.14760430       3.84045702      -3.01204146
C        1.33597689       3.04212244      -2.19571486
C        1.79129725       1.79129725      -1.79129725
C        3.05032505       1.33875042      -2.18112391
C        3.85907548       2.13607229      -2.99750081
C        3.40433789       3.38348364      -3.43917162
O        4.13153494       4.21226583      -4.24885629
C        5.07034804       3.58998833      -5.12625542
C        5.26618507       4.51092592      -6.30359551
C        6.27753105       5.48163249      -6.29790303
C        6.43618233       6.34477952      -7.38452844
C        5.58123663       6.25304078      -8.48280924
C        4.56496475       5.30068926      -8.48689637
Br       3.39643255       5.18031701      -9.96829974
C        4.40010873       4.43559787      -7.40557238
H        2.31320267       5.78686026      -4.05818462
H        0.35741661       3.40132493      -1.88368725
H        3.41334819       0.36746780      -1.85252870
H        4.84367043       1.76214011      -3.26316387
H        4.71194131       2.62000770      -5.49524316
H        6.02003004       3.43508304      -4.60056686
H        6.94482979       5.57635220      -5.44355050
H        7.22396020       7.09418387      -7.37274761
H        5.71062306       6.93004913      -9.32301016
H        3.59505830       3.70409269      -7.41446935
O       -5.00501513      -0.22555873      -3.98342566
C       -4.76847870      -1.42785668      -4.05383269
C       -3.65539223      -2.04432250      -3.30038804
C       -2.84603112      -1.22654136      -2.50124171
C       -1.79129725      -1.79129725      -1.79129725
C       -1.52985906      -3.15697982      -1.88336050
C       -2.33964988      -3.97268898      -2.68030971
C       -3.42366894      -3.42676468      -3.37655952
O       -4.26685976      -4.16200296      -4.16379434
C       -4.42841154      -5.53825906      -3.81992119
C       -5.77948860      -5.97415027      -4.32706763
C       -5.92432885      -6.52459304      -5.60814468
C       -7.18402543      -6.90455249      -6.07691237
C       -8.31188164      -6.73024385      -5.27496115
C       -8.17571105      -6.16946991      -4.00736942
Br      -9.70315534      -5.92055862      -2.92133534
C       -6.92138055      -5.78738557      -3.53251286
H       -5.38311011      -2.08787596      -4.68726149
H       -3.04516853      -0.15865123      -2.43860903
H       -0.69588589      -3.59663324      -1.34082555
H       -2.09321971      -5.02844083      -2.74731386
H       -4.39176922      -5.70073399      -2.73468895
H       -3.63475933      -6.13146629      -4.28945432
H       -5.05716516      -6.65507954      -6.25248781
H       -7.28759997      -7.33190273      -7.07138898
H       -9.28836808      -7.02676437      -5.64854990
H       -6.82888377      -5.33895585      -2.54578072
O       -1.62285260       5.97758249       1.61356443
C       -2.40403344       5.44793324       2.39820138
C       -2.50704588       3.97746453       2.51559237
C       -1.70107149       3.17632135       1.69642135
C       -1.79129725       1.79129725       1.79129725
C       -2.68572642       1.20184955       2.68262341
C       -3.48873293       2.00279886       3.50111678
C       -3.38870235       3.39717618       3.44111462
O       -4.12992509       4.24453239       4.21819958
C       -4.55597686       3.74470740       5.48590753
C       -4.75515610       4.93102431       6.39452609
C       -6.00337200       5.56154005       6.49215452
C       -6.17158809       6.67385554       7.32004665
C       -5.09342437       7.17259573       8.05106655
C       -3.84733696       6.55942204       7.94579138
Br      -2.38026693       7.23898353       8.92579884
C       -3.67152154       5.44866221       7.12109523
H       -3.05785837       6.05825315       3.04213603
H       -1.01064286       3.63818570       0.99360023
H       -2.76796839       0.11910500       2.74627129
H       -4.19108650       1.51039064       4.16749726
H       -3.81152166       3.07680871       5.93886179
H       -5.49568618       3.19223325       5.36776051
H       -6.85200489       5.19423236       5.91849525
H       -7.14341206       7.15640361       7.39107600
H       -5.23283870       8.03973055       8.69111310
H       -2.69077302       4.98565218       7.03719514
O        5.48721452      -0.46433089       3.26245412
C        5.10542059      -1.59482820       3.54991927
C        3.81627891      -2.12623585       3.05758802
C        3.00963434      -1.30726414       2.25691571
C        1.79129725      -1.79129725       1.79129725
C        1.36658632      -3.07492622       2.12868684
C        2.17358787      -3.89223150       2.92682920
C        3.41593301      -3.43301642       3.37804372
O        4.26490538      -4.17805741       4.14969427
C        4.18501529      -5.59622884       4.00534766
C        5.52767796      -6.16478363       4.38824492
C        5.79469499      -6.55421357       5.70815801
C        7.04945972      -7.05897392       6.05705664
C        8.05205314      -7.17119156       5.09384196
C        7.79700223      -6.77118923       3.78435892
Br       9.15653349      -6.91058572       2.47793009
C        6.54682807      -6.26599967       3.42845124
H        5.71688632      -2.25136017       4.19000106
H        3.33800883      -0.30145827       2.00296168
H        0.40710150      -3.44837619       1.77786699
H        1.80123479      -4.87822204       3.18951758
H        3.95871992      -5.89508609       2.97338617
H        3.40167516      -5.99050438       4.66350040
H        5.02862767      -6.46075457       6.47535026
H        7.24805965      -7.35995456       7.08287747
H        9.02603715      -7.56304306       5.37460214
H        6.36310039      -5.94507129       2.40544865
C       -0.00445707       0.01189536      -1.78238275
H       -0.66409135       0.67374010      -2.43557963
H        0.65740317      -0.63156657      -2.45157240
C       -0.90989263      -0.90692880      -0.91072765
C        0.90977584       0.90977584      -0.90977584
C       -0.00465871       1.77757030       0.00794375
H       -0.66225468       2.44313916      -0.64384735
H        0.64322798       2.43503045       0.67728295
C       -1.78241447       0.00034974      -0.00472694
H       -2.45427497      -0.65498947       0.64260836
H       -2.43311707       0.67328779      -0.65473579
C       -0.91132561       0.90220522       0.91563759
C       -0.01476271      -0.02253852       1.78660255
H       -0.67934791      -0.69751639       2.42135241
H        0.63392994       0.61504881       2.47327442
C        0.01484550      -1.77751727      -0.01636693
H        0.67870853      -2.42144646      -0.68295456
H       -0.62264859      -2.45592969       0.64226336
C        1.78714474       0.01002794       0.00389507
H        2.44202412       0.67113390       0.66197326
H        2.45385902      -0.65136977      -0.64189061
C        0.91606151      -0.90478549       0.90901405
