166
Properties=species:S:1:pos:R:3 pbc="F F F"
C        1.79215381       1.79215381      -1.79215381
C        1.95194660       3.14127481      -1.47958847
C        2.76212112       3.94478123      -2.28204444
C        3.41277900       3.39562394      -3.38912565
C        3.25170245       2.04117609      -3.69920793
C        2.43385783       1.23792992      -2.89931499
C        3.93781650       1.45752396      -4.84389863
H        3.34844780       1.25933053      -5.73436763
C        5.34183464       1.08866233      -4.86681581
S        6.47386395       1.32044000      -3.59917425
C        7.73185325       0.28800662      -4.32480790
H        7.86417191      -0.64185555      -3.76037941
N        8.99094350       0.97736080      -4.53138669
C        9.54287330       0.37146822      -5.75030324
H       10.03748289      -0.57208103      -5.49214299
N        8.37417144       0.03276023      -6.56942244
N        7.30572552      -0.03085482      -5.64937424
C        6.07756777       0.48902512      -6.01401305
O        5.57886899       0.52966860      -7.12812512
C       10.51198088       1.30771720      -6.44495060
C       10.03739383       2.23683320      -7.39736861
C       10.89676276       3.13521008      -8.03295250
C       12.25132439       3.13622604      -7.72290744
C       12.74410279       2.24299205      -6.77353926
C       11.88388884       1.33996597      -6.13407188
Br      12.66950403       0.19294496      -4.83584701
H        1.45375176       3.57378166      -0.61573707
H        2.89212559       4.99721301      -2.04278263
H        4.04607352       4.03106741      -4.00399784
H        2.30706940       0.18404740      -3.13208129
H        8.73379785       1.92842823      -4.78285723
H        8.50727070      -0.88238782      -7.00005540
H        8.97913089       2.26729439      -7.65645115
H       10.50358278       3.83404772      -8.76698402
H       12.92309669       3.83592706      -8.21462516
H       13.80425114       2.26237291      -6.53242774
C       -1.79215381      -1.79215381      -1.79215381
C       -2.65832183      -2.71176430      -1.20272375
C       -3.46766075      -3.51276269      -2.00852334
C       -3.41177339      -3.38737148      -3.39838372
C       -2.54276581      -2.46256405      -3.98675662
C       -1.72643301      -1.66530829      -3.17936145
C       -2.48851373      -2.31578639      -5.43493898
H       -1.63859482      -2.75176089      -5.95179025
C       -3.46809574      -1.59833228      -6.23088477
S       -4.89651887      -0.84770956      -5.64924977
C       -5.22881726       0.04139910      -7.15724962
H       -5.06744664       1.11812874      -7.03337788
N       -6.53497715      -0.24728631      -7.71742752
C       -6.33680748      -0.15775600      -9.17008128
H       -6.37631963       0.89426004      -9.47548527
N       -4.96253392      -0.61828324      -9.39553695
N       -4.32586409      -0.45140989      -8.14697095
C       -3.44655287      -1.42456420      -7.70948887
O       -2.71748627      -2.13683082      -8.38234563
C       -7.37306058      -0.96952961      -9.92205848
C       -7.13400410      -2.33279878     -10.20479277
C       -8.07932428      -3.11831299     -10.86728807
C       -9.29375842      -2.56383451     -11.25286494
C       -9.56395938      -1.22621014     -10.97046458
C       -8.61690602      -0.43526319     -10.30575747
Br      -9.11414519       1.36599455      -9.95014536
H       -2.71169571      -2.81004978      -0.12152500
H       -4.14639814      -4.23069109      -1.55503200
H       -4.05163981      -4.01370749      -4.01579148
H       -1.05162585      -0.94213018      -3.62944206
H       -6.69747777      -1.23077288      -7.51683265
H       -4.50885609      -0.02536308     -10.09071911
H       -6.19495746      -2.79983798      -9.90808100
H       -7.86423245      -4.16299513     -11.07738695
H      -10.03304685      -3.17332495     -11.76727712
H      -10.52278469      -0.80835432     -11.26791279
C       -1.79215381       1.79215381       1.79215381
C       -2.72601184       1.20339316       2.64340488
C       -3.52704569       2.00911062       3.45279047
C       -3.38750495       3.39814371       3.41187992
C       -2.44843276       3.98582372       2.55783000
C       -1.65108764       3.17861633       1.74139878
C       -2.28695275       5.43294565       2.51934070
H       -2.70941979       5.96238011       1.67034606
C       -1.57146107       6.21212811       3.51372361
S       -0.84073115       5.60914029       4.94360676
C        0.05977130       7.10494842       5.29949065
H        1.13677948       6.97202155       5.14745372
N       -0.23631703       7.65513728       6.60823667
C       -0.13061191       9.10870547       6.42532738
H        0.92390195       9.40329014       6.47815666
N       -0.57529749       9.35214963       5.04890699
N       -0.41437013       8.10828845       4.40158635
C       -1.38301881       7.68908167       3.50850546
O       -2.08141872       8.37605527       2.77918872
C       -0.94519079       9.85849043       7.46096745
C       -2.30319561      10.15701877       7.21138128
C       -3.09149462      10.81796121       8.15546951
C       -2.54530330      11.18612648       9.37902809
C       -1.21324551      10.88788067       9.65950792
C       -0.41951881      10.22468988       8.71371799
Br       1.37316554       9.84643170       9.22502984
H       -2.83540230       0.12274839       2.68511980
H       -4.25605668       1.55611646       4.11994809
H       -4.01406218       4.01541986       4.05165674
H       -0.91689971       3.62810969       1.07818869
H       -1.22327940       7.46269588       6.75910802
H        0.02885842      10.04584365       4.60795306
H       -2.76380913       9.87414885       6.26491845
H       -4.13189145      11.04047618       7.93224690
H       -3.15700822      11.69927693      10.11736376
H       -0.80199897      11.17177963      10.62527319
C        1.79215381      -1.79215381       1.79215381
C        2.36977564      -1.25940667       2.94362756
C        3.17033062      -2.06693181       3.75168435
C        3.38536632      -3.40357120       3.40859106
C        2.80307134      -3.93562137       2.25339376
C        2.00702624      -3.12424083       1.43983568
C        3.01099853      -5.33230041       1.89594016
H        3.70686852      -5.54549201       1.08978543
C        2.32847230      -6.45475601       2.51408447
S        1.20882485      -6.37367207       3.81098128
C        0.64993478      -8.05673980       3.63799320
H       -0.37610295      -8.10272601       3.25607271
N        0.81123288      -8.84181798       4.84664012
C        1.10180331     -10.19846209       4.36437936
H        0.16182786     -10.69627972       4.09943728
N        1.85141445     -10.00669512       3.11824454
N        1.52027967      -8.69810884       2.70585642
C        2.51161112      -7.89315179       2.17584303
O        3.48485047      -8.23160217       1.52021007
C        1.85755176     -11.00554251       5.40155441
C        3.26911252     -10.96402432       5.43845881
C        3.99597649     -11.66943385       6.39951501
C        3.32921216     -12.42455931       7.35668640
C        1.93636119     -12.46885413       7.35541877
C        1.20412237     -11.76194818       6.39185613
Br      -0.69075089     -11.87625021       6.51279667
H        2.20134730      -0.22177946       3.22014373
H        3.62235408      -1.65797687       4.65179027
H        4.00708352      -4.02454426       4.04951100
H        1.54846134      -3.53184212       0.54289463
H        1.67240180      -8.50397450       5.26870700
H        1.53286339     -10.67533255       2.41674234
H        3.82155437     -10.37431982       4.70700225
H        5.08211368     -11.62391518       6.39858568
H        3.89219466     -12.97360558       8.10784867
H        1.42731342     -13.05465598       8.11708239
C       -0.00445707       0.01189536      -1.78238275
H       -0.66409135       0.67374010      -2.43557963
H        0.65740317      -0.63156657      -2.45157240
C       -0.90989263      -0.90692880      -0.91072765
C        0.90977584       0.90977584      -0.90977584
C       -0.00465871       1.77757030       0.00794375
H       -0.66225468       2.44313916      -0.64384735
H        0.64322798       2.43503045       0.67728295
C       -1.78241447       0.00034974      -0.00472694
H       -2.45427497      -0.65498947       0.64260836
H       -2.43311707       0.67328779      -0.65473579
C       -0.91132561       0.90220522       0.91563759
C       -0.01476271      -0.02253852       1.78660255
H       -0.67934791      -0.69751639       2.42135241
H        0.63392994       0.61504881       2.47327442
C        0.01484550      -1.77751727      -0.01636693
H        0.67870853      -2.42144646      -0.68295456
H       -0.62264859      -2.45592969       0.64226336
C        1.78714474       0.01002794       0.00389507
H        2.44202412       0.67113390       0.66197326
H        2.45385902      -0.65136977      -0.64189061
C        0.91606151      -0.90478549       0.90901405
