145
Properties=species:S:1:pos:R:3 pbc="F F F"
C        0.00000000       0.00000000       0.00000000
C        0.88224979       0.88224979      -0.88224979
C        1.04204258       2.23137078      -0.56968445
C        1.85221709       3.03487721      -1.37214041
C        2.50287498       2.48571991      -2.47922162
C        2.34179843       1.13127207      -2.78930390
C        1.52395380       0.32802590      -1.98941097
C        3.02791248       0.54761994      -3.93399461
H        2.43854377       0.34942651      -4.82446361
C        4.43193062       0.17875831      -3.95691179
S        5.56395992       0.41053598      -2.68927022
C        6.82194923      -0.62189740      -3.41490388
H        6.95426789      -1.55175957      -2.85047539
N        8.08103947       0.06745677      -3.62148267
C        8.63296927      -0.53843580      -4.84039921
H        9.12757886      -1.48198505      -4.58223897
N        7.46426741      -0.87714379      -5.65951842
N        6.39582150      -0.94075885      -4.73947021
C        5.16766374      -0.42087890      -5.10410903
O        4.66896496      -0.38023542      -6.21822110
C        9.60207685       0.39781317      -5.53504657
C        9.12748981       1.32692918      -6.48746459
C        9.98685873       2.22530606      -7.12304848
C       11.34142037       2.22632202      -6.81300341
C       11.83419877       1.33308802      -5.86363523
C       10.97398481       0.43006194      -5.22416785
Br      11.75960000      -0.71695906      -3.92594298
H        0.54384774       2.66387764       0.29416696
H        1.98222156       4.08730898      -1.13287861
H        3.13616949       3.12116339      -3.09409382
H        1.39716538      -0.72585662      -2.22217726
H        7.82389382       1.01852420      -3.87295320
H        7.59736668      -1.79229185      -6.09015138
H        8.06922687       1.35739037      -6.74654712
H        9.59367876       2.92414370      -7.85708000
H       12.01319267       2.92602304      -7.30472113
H       12.89434711       1.35246889      -5.62252372
C       -0.88224979      -0.88224979      -0.88224979
C       -1.82307461      -1.72609846      -0.29392474
C       -2.63215499      -2.52693442      -1.10014530
C       -2.50126279      -2.47683458      -2.48971915
C       -1.55738791      -1.62788763      -3.07709886
C       -0.74160489      -0.83104714      -2.26873864
C       -1.42413563      -1.55940566      -4.52598573
H       -0.57353046      -2.06308194      -4.97582148
C       -2.32461789      -0.83677602      -5.40620680
S       -3.73909111       0.01267257      -4.93734759
C       -3.94987393       0.83755695      -6.50263872
H       -3.73909485       1.90998388      -6.42387273
N       -5.24000984       0.58501124      -7.11498031
C       -4.96596358       0.58905388      -8.55802298
H       -4.93563607       1.62444809      -8.91664480
N       -3.60801781       0.05013357      -8.68875780
N       -3.02597247       0.25000587      -7.41856626
C       -2.22108613      -0.74133835      -6.88846938
O       -1.49767308      -1.52273329      -7.48654427
C       -6.00459214      -0.20852784      -9.32181662
C       -5.82301608      -1.59478467      -9.52408282
C       -6.77400012      -2.36601602     -10.19519713
C       -7.93746249      -1.77302498     -10.67025833
C       -8.15141878      -0.41082635     -10.46867689
C       -7.19853299       0.36585308      -9.79553470
Br      -7.61847116       2.20550776      -9.55562052
H       -1.93480922      -1.76532266       0.78657347
H       -3.36884015      -3.18593803      -0.64763097
H       -3.14153530      -3.10203856      -3.10785283
H       -0.00873553      -0.16643604      -2.71831445
H       -5.46309444      -0.37749926      -6.87477753
H       -3.09037283       0.58300752      -9.38786090
H       -4.92530169      -2.09157908      -9.15628359
H       -6.60336203      -3.42954817     -10.34199226
H       -8.68111220      -2.37116603     -11.19165861
H       -9.07137987       0.03784964     -10.83580948
C       -0.88224979       0.88224979       0.88224979
C       -1.26691879       0.43194224       2.14423678
C       -2.06750645       1.24027039       2.95145787
C       -2.47516226       2.49619634       2.49645791
C       -2.08619218       2.94586901       1.23031321
C       -1.29018213       2.13260187       0.41860668
C       -2.49549450       4.26011370       0.75391882
H       -3.29338263       4.30085380       0.01819746
C       -1.88957106       5.51416949       1.16386016
S       -0.63694860       5.70718573       2.31963180
C       -0.30371692       7.40748133       1.90375744
H        0.66319837       7.51636066       1.39982142
N       -0.42803435       8.30913636       3.03280820
C       -0.92740881       9.56024434       2.44727953
H       -0.08677222      10.11995520       2.02110537
N       -1.77689053       9.14317652       1.32657500
N       -1.33813988       7.83742449       1.01896850
C       -2.27732384       6.87451324       0.69905678
O       -3.34795525       7.02737201       0.13162338
C       -1.65939223      10.40013608       3.47540829
C       -3.04405151      10.21372004       3.68411203
C       -3.74350786      10.94725431       4.64445111
C       -3.07347846      11.87732100       5.42994634
C       -1.70383763      12.06873036       5.25835403
C       -0.99916321      11.33399120       4.29506020
Br       0.87072674      11.66232848       4.17698218
H       -0.94789958      -0.54165864       2.50731748
H       -2.36958359       0.89560985       3.93721572
H       -3.09475286       3.11946252       3.13721132
H       -0.98115029       2.47699673      -0.56466100
H       -1.19321971       7.93440403       3.58774749
H       -1.61638208       9.75365141       0.52519272
H       -3.59693567       9.48593538       3.09029331
H       -4.81044397      10.78692885       4.77752964
H       -3.61483101      12.44892403       6.18018181
H       -1.19012258      12.79164885       5.88756829
C        0.88224979      -0.88224979       0.88224979
C        2.06367116      -0.36650666       1.41291999
C        2.86566534      -1.17058950       2.22297987
C        2.48093141      -2.48358568       2.50329943
C        1.29408969      -2.99766841       1.97061629
C        0.49440348      -2.19416420       1.15282299
C        0.87866135      -4.36142988       2.26943579
H        1.01214535      -5.10814055       1.49214799
C        0.26648616      -4.78532027       3.51579429
S       -0.02706525      -3.80119303       4.88963835
C       -1.07767758      -4.98595300       5.70668028
H       -2.12239426      -4.65560903       5.71976894
N       -0.61050852      -5.35002620       7.03046123
C       -1.00414096      -6.75699274       7.18208091
H       -2.05810898      -6.80680799       7.47913378
N       -0.91164463      -7.32528942       5.83299725
N       -0.98742857      -6.20782420       4.97413723
C       -0.17298603      -6.16623808       3.85764181
O        0.22382108      -7.10225519       3.18087438
C       -0.13127440      -7.47078016       8.19543084
C        1.06938349      -8.09003154       7.78246855
C        1.91298490      -8.72875122       8.69347715
C        1.58389040      -8.75354557      10.04330982
C        0.41470023      -8.13470367      10.48151812
C       -0.43409021      -7.49296443       9.56934039
Br      -1.98315375      -6.65905199      10.29268568
H        2.36588827       0.65652777       1.20419792
H        3.78734272      -0.77388266       2.64118377
H        3.11191566      -3.09891733       3.14059371
H       -0.43080252      -2.58571689       0.73857165
H        0.40403731      -5.34858735       6.96274657
H       -1.70708834      -7.94058764       5.66172692
H        1.36026370      -8.08080138       6.73209928
H        2.82710712      -9.20279122       8.34500412
H        2.23968240      -9.24844140      10.75581304
H        0.17521115      -8.15205933      11.54206923
