190
Properties=species:S:1:pos:R:3 pbc="F F F"
Cl       1.72933663      12.73019002       1.36407038
C        2.03624384      11.24749977       0.54319210
C        2.76122832      11.24944776      -0.64296557
C        3.00621344      10.04139834      -1.30279437
C        2.53514949       8.82056316      -0.79374745
C        1.80248911       8.84804081       0.40162192
C        1.55454526      10.05267997       1.07006165
C        2.79231577       7.55838344      -1.49540217
C        2.34965042       6.19703042      -1.03004486
C        3.25930948       5.31011864      -1.86769631
H        4.24519037       5.26079747      -1.37636288
N        3.31687471       6.09740215      -3.08948667
N        3.45252344       7.50257637      -2.67278404
C        4.33715616       5.55045020      -3.98100036
H        5.32948341       5.66396268      -3.52121994
O        4.17375611       4.12824304      -4.26526600
C        3.39148809       3.39668055      -3.40923928
C        3.12334121       2.08007596      -3.78391100
C        2.31928301       1.27519069      -2.97621653
C        1.79269351       1.79269351      -1.79269351
C        2.06649154       3.10422399      -1.40386950
C        2.86442148       3.91493286      -2.21920860
C        4.36849440       6.20764472      -5.36058882
C        3.19325385       6.67265329      -5.97571024
C        3.22225995       7.24817138      -7.24662544
C        4.43024848       7.35382720      -7.93230849
C        5.60115347       6.88132749      -7.34035314
Br       7.24009760       7.01772154      -8.27732823
C        5.57776779       6.30851952      -6.06804634
H        3.13823402      12.17351394      -1.06810939
H        3.56970962      10.04796272      -2.23418368
H        1.41022572       7.92724538       0.82170027
H        0.98470109      10.04366164       1.99313938
H        1.28565995       6.04445730      -1.24955292
H        2.52508242       6.03263235       0.03779859
H        3.53359300       1.69389356      -4.71195238
H        2.10752444       0.25479346      -3.28103393
H        1.66137062       3.50183962      -0.47831607
H        2.25303418       6.60486801      -5.42715783
H        2.30167242       7.61954816      -7.68536768
H        4.44774528       7.80748140      -8.91754570
H        6.49239528       5.94063422      -5.61256612
Cl      -5.51302059       3.54938737     -11.13182305
C       -5.21261158       2.37774552      -9.90568546
C       -5.88590345       1.16173211      -9.92947031
C       -5.63590354       0.21601812      -8.93052073
C       -4.71687497       0.46633712      -7.89892224
C       -4.05546502       1.70285812      -7.89630110
C       -4.29793586       2.65454337      -8.89377110
C       -4.46465088      -0.52952279      -6.85192772
C       -3.49131766      -0.37065976      -5.71474828
C       -3.34210185      -1.81987848      -5.27514410
H       -2.62101885      -2.31442474      -5.94690713
N       -4.69682667      -2.29247706      -5.51445980
N       -5.11987179      -1.70978482      -6.79822723
C       -4.74301713      -3.74658996      -5.37899963
H       -4.13494491      -4.21114153      -6.16857958
O       -4.21823448      -4.23957693      -4.10945374
C       -3.40795060      -3.39973113      -3.38972618
C       -3.04504570      -3.82913162      -2.11315086
C       -2.23774741      -3.02330850      -1.30963432
C       -1.79269351      -1.79269351      -1.79269351
C       -2.14012768      -1.36133997      -3.07311738
C       -2.95849790      -2.16487351      -3.87519153
C       -6.15406746      -4.32930736      -5.45335313
C       -7.26310217      -3.62511522      -4.95339999
C       -8.54624543      -4.17168683      -4.99912453
C       -8.73926840      -5.44357673      -5.53353904
C       -7.64514494      -6.15981868      -6.01787047
Br      -7.90824020      -7.89143359      -6.73547359
C       -6.36063904      -5.61588864      -5.97780597
H       -6.60536382       0.93437753     -10.70887106
H       -6.16925901      -0.73277936      -8.94981765
H       -3.34662604       1.94009403      -7.10923882
H       -3.77160754       3.60275427      -8.86637007
H       -3.91713387       0.27028984      -4.93282614
H       -2.52705567       0.03893827      -6.03179878
H       -3.40584514      -4.78573485      -1.74785894
H       -1.96878988      -3.36116191      -0.31340003
H       -1.78596158      -0.40635690      -3.44920782
H       -7.10958660      -2.62219139      -4.55328202
H       -9.38603336      -3.59370081      -4.62685409
H       -9.73978695      -5.86105666      -5.57192877
H       -5.51193840      -6.17884203      -6.35481519
Cl     -12.88551591      -0.54713159       0.75707195
C      -11.37682827       0.14079528       1.22292797
C      -11.35106097       1.27197728       2.03060339
C      -10.12207087       1.82387061       2.40446467
C       -8.90754195       1.26038163       1.98153651
C       -8.96265471       0.12269890       1.16355439
C      -10.18862054      -0.43781016       0.78635320
C       -7.62273859       1.84912181       2.37424098
C       -6.26749346       1.31693859       1.99229364
C       -5.39440216       2.02404375       3.01867853
H       -5.45051838       1.46462600       3.96720634
N       -6.09901642       3.29321587       3.11153124
N       -7.53537929       2.97176125       3.12074330
C       -5.56859833       4.07117575       4.22883263
H       -5.78506618       3.55458111       5.17501873
O       -4.12225653       4.26149482       4.18351380
C       -3.39544958       3.40952937       3.39242897
C       -2.04041529       3.70461108       3.24230181
C       -1.23578100       2.89687442       2.43803480
C       -1.79269351       1.79269351       1.79269351
C       -3.14405150       1.48277649       1.94775704
C       -3.95351489       2.29896016       2.74608788
C       -6.13114615       5.48966335       4.31591844
C       -6.46644912       6.21539805       3.15977020
C       -6.95493468       7.51995977       3.24216233
C       -7.10153110       8.12791976       4.48693332
C       -6.75688553       7.42498448       5.64096409
Br      -6.94840757       8.25596851       7.33077130
C       -6.27160062       6.11885396       5.56387906
H      -12.26913922       1.73674248       2.37397565
H      -10.10642711       2.71285097       3.03257794
H       -8.04637532      -0.33575182       0.80514733
H      -10.20079572      -1.31826808       0.15269571
H       -6.02325008       1.59647466       0.95994543
H       -6.18919317       0.23051497       2.10020804
H       -1.62303870       4.57204732       3.74435292
H       -0.18433266       3.14020346       2.31881572
H       -3.57300942       0.61830055       1.45021634
H       -6.36773547       5.72846700       2.18885755
H       -7.22760095       8.04608097       2.33290634
H       -7.48731521       9.14012572       4.54533145
H       -6.00311057       5.57673704       6.46574801
Cl      -3.79786328     -10.65947957       6.23383998
C       -2.58523228      -9.51009888       5.81568492
C       -1.33926271      -9.56293581       6.42996855
C       -0.36039859      -8.62632681       6.08447792
C       -0.60692975      -7.62884429       5.12754556
C       -1.87377481      -7.59550927       4.52717353
C       -2.85890537      -8.53070274       4.86536621
C        0.42415920      -6.64695256       4.77498963
C        0.27119748      -5.55139077       3.75413745
C        1.73049668      -5.19338697       3.51324079
H        2.15498915      -5.92326532       2.80409624
N        2.25897201      -5.39078682       4.85400471
N        1.63728216      -6.62155458       5.36904711
C        3.71839373      -5.32702023       4.82319275
H        4.11300945      -6.16746679       4.23418978
O        4.24476398      -4.11079959       4.21170157
C        3.40062896      -3.38935475       3.40742420
C        3.87209868      -2.15510747       2.96012203
C        3.06608982      -1.35165634       2.15294408
C        1.79269351      -1.79269351       1.79269351
C        1.31830723      -3.03142622       2.22485158
C        2.12266189      -3.83278935       3.04311169
C        4.36751432      -5.36272084       6.20649279
C        3.74524613      -4.77493827       7.32143298
C        4.35321519      -4.78641105       8.57743054
C        5.60602664      -5.37458890       8.73576863
C        6.24182220      -5.94667956       7.63433234
Br       7.94795859      -6.73748851       7.84970027
C        5.63614668      -5.94105229       6.37713468
H       -1.11359267     -10.31728646       7.17616357
H        0.61214243      -8.66790372       6.57180986
H       -2.10839553      -6.83250420       3.79166216
H       -3.83011529      -8.48073276       4.38460587
H       -0.30897739      -4.71843445       4.17021311
H       -0.20146760      -5.89338010       2.82800367
H        4.86221690      -1.82174104       3.25548099
H        3.43748841      -0.38790748       1.81795594
H        0.32962082      -3.37532729       1.93657819
H        2.75627478      -4.33243742       7.19634781
H        3.83706959      -4.34535376       9.42416490
H        6.07127011      -5.38582399       9.71567827
H        6.13661711      -6.38650530       5.52247321
C       -0.00445707       0.01189536      -1.78238275
H       -0.66409135       0.67374010      -2.43557963
H        0.65740317      -0.63156657      -2.45157240
C       -0.90989263      -0.90692880      -0.91072765
C        0.90977584       0.90977584      -0.90977584
C       -0.00465871       1.77757030       0.00794375
H       -0.66225468       2.44313916      -0.64384735
H        0.64322798       2.43503045       0.67728295
C       -1.78241447       0.00034974      -0.00472694
H       -2.45427497      -0.65498947       0.64260836
H       -2.43311707       0.67328779      -0.65473579
C       -0.91132561       0.90220522       0.91563759
C       -0.01476271      -0.02253852       1.78660255
H       -0.67934791      -0.69751639       2.42135241
H        0.63392994       0.61504881       2.47327442
C        0.01484550      -1.77751727      -0.01636693
H        0.67870853      -2.42144646      -0.68295456
H       -0.62264859      -2.45592969       0.64226336
C        1.78714474       0.01002794       0.00389507
H        2.44202412       0.67113390       0.66197326
H        2.45385902      -0.65136977      -0.64189061
C        0.91606151      -0.90478549       0.90901405
