162
Properties=species:S:1:pos:R:3 pbc="F F F"
C        1.79147346       1.79147346      -1.79147346
C        1.88792042       1.52961780      -3.15622037
C        2.69472318       2.33862726      -3.96305656
C        3.41195512       3.41196322      -3.41181794
C        3.30277469       3.65790484      -2.03385206
C        2.49457828       2.85242260      -1.22560450
C        4.25848113       4.26161043      -4.24489062
N        4.32603935       4.17490089      -5.58362722
O        5.23959961       5.16507285      -5.93623068
C        5.64929593       5.74906846      -4.77418855
C        6.63702465       6.85522533      -4.86317422
O        7.52971148       6.57261434      -5.94229271
C        8.45101841       7.54098158      -6.23159733
C        8.92328936       7.53209168      -7.54262089
C        9.88319741       8.45722422      -7.95370281
C       10.39073587       9.38883234      -7.04492651
C        9.94270619       9.40225003      -5.71542647
C       10.48498506      10.36689043      -4.69669824
C        8.96533491       8.46816074      -5.32108560
N        5.06474176       5.24369405      -3.70870004
H        1.34285522       0.70218222      -3.60310553
H        2.76017831       2.11926746      -5.02799792
H        3.84747164       4.48349432      -1.57878474
H        2.42309558       3.06207793      -0.16131354
H        7.18375693       6.89908615      -3.91491955
H        6.10907935       7.80013051      -5.03917005
H        8.53900693       6.80369118      -8.25300467
H       10.23207624       8.43794547      -8.98330912
H       10.00983640      10.22855031      -3.71896364
H       10.29592957      11.40019194      -5.00576707
H       11.56056374      10.21220450      -4.55917477
H        8.64202094       8.46869702      -4.28479544
C       11.38601688      10.31208026      -7.52516498
C       12.21956473      11.08530039      -7.92736470
Br      13.56734111      12.33553194      -8.57768762
C       -1.79147346      -1.79147346      -1.79147346
C       -2.63975145      -2.72832063      -1.20568650
C       -3.44783909      -3.53442554      -2.01414237
C       -3.41185630      -3.41187418      -3.41200579
C       -2.54866316      -2.46304973      -3.98281870
C       -1.74197752      -1.65394232      -3.17668553
C       -4.25001951      -4.24970650      -4.26525618
N       -5.18804981      -5.09301957      -3.80349808
O       -5.72235260      -5.66147496      -4.95707558
C       -5.04637385      -5.11733773      -6.00884136
C       -5.42400728      -5.55355516      -7.37786175
O       -5.78637016      -6.93450408      -7.32374428
C       -6.25797865      -7.47975164      -8.48586703
C       -7.08804791      -8.58713662      -8.32281741
C       -7.61426175      -9.24505277      -9.43480992
C       -7.29590064      -8.80633184     -10.72226224
C       -6.44660809      -7.70520795     -10.90856664
C       -6.05290687      -7.21918671     -12.27648016
C       -5.93357861      -7.04658997      -9.77441267
N       -4.14436919      -4.23252409      -5.64024256
H       -2.68148041      -2.84123571      -0.12542685
H       -4.10437537      -4.26295691      -1.54011141
H       -2.49983025      -2.34578607      -5.06413438
H       -1.08235029      -0.92438999      -3.63974676
H       -4.55638522      -5.41027107      -8.03110635
H       -6.26762667      -4.94893387      -7.73181937
H       -7.33276482      -8.93952951      -7.32340844
H       -8.26628624     -10.10212572      -9.28491889
H       -5.39104524      -6.34771857     -12.21858653
H       -6.93722878      -6.91734976     -12.84731003
H       -5.51146420      -8.00198041     -12.81849840
H       -5.25750956      -6.21106807      -9.92693576
C       -7.86169401      -9.53101041     -11.83055770
C       -8.33554595     -10.13792872     -12.75875516
Br      -9.10172446     -11.11926428     -14.25957193
C       -1.79147346       1.79147346       1.79147346
C       -1.64319356       1.75451521       3.17604982
C       -2.45036700       2.56347454       3.98256545
C       -3.41197637       3.41193967       3.41182024
C       -3.54705189       3.43298171       2.01449799
C       -2.73932477       2.62742211       1.20585849
C       -4.26098267       4.25921850       4.24478102
N       -4.11811882       4.39273513       5.57371351
O       -5.12598845       5.28550785       5.92940684
C       -5.79306112       5.59762250       4.78186933
C       -6.93115411       6.54783929       4.87643080
O       -7.59682317       6.32668372       6.12111164
C       -8.61770367       7.18630899       6.41958467
C       -8.88657344       7.33232559       7.77910290
C       -9.92007792       8.16494079       8.20910573
C      -10.70497972       8.84479936       7.27471564
C      -10.46318545       8.69653966       5.90065757
C      -11.30350013       9.38485057       4.86022304
C       -9.40870979       7.86057329       5.48529817
N       -5.29165961       5.00840179       3.71707445
H       -0.90636111       1.10302828       3.63875358
H       -2.32254708       2.52140765       5.06348896
H       -4.28439669       4.08133018       1.54402383
H       -2.85952390       2.66101397       0.12594917
H       -7.60890477       6.35000949       4.03884838
H       -6.55186492       7.57528244       4.82123255
H       -8.28513422       6.79891542       8.51165314
H      -10.10768082       8.27081804       9.27483198
H      -10.95848325       9.15246282       3.84640428
H      -11.25029170      10.47200123       4.97959564
H      -12.34547266       9.05484349       4.93162686
H       -9.24380392       7.73158637       4.42012310
C      -11.76262224       9.68222152       7.77841837
C      -12.64839785      10.38356257       8.20026940
Br     -14.08062209      11.51757174       8.88236684
C        1.79147346      -1.79147346       1.79147346
C        2.71287811      -2.65597262       1.20490786
C        3.52084838      -3.46210084       2.01345778
C        3.41185004      -3.41188166       3.41200458
C        2.47568084      -2.53539516       3.98345559
C        1.66884693      -1.72632139       3.17743706
C        4.24927414      -4.25047367       4.26523438
N        5.24957034      -5.02360541       3.81139172
O        5.75593645      -5.62312814       4.96183854
C        5.00385468      -5.16557897       6.00311930
C        5.33696140      -5.65152218       7.36694061
O        5.77050321      -7.00906255       7.26505277
C        6.21274984      -7.58886551       8.42198198
C        7.10432467      -8.64562654       8.24805072
C        7.60911262      -9.33268965       9.35232217
C        7.20780143      -8.97503252      10.64166078
C        6.29625108      -7.92660771      10.83752390
C        5.81354950      -7.52941943      12.20560480
C        5.80564158      -7.23709838       9.71184129
N        4.07717209      -4.30755439       5.63240937
H        2.81191527      -2.71227926       0.12394845
H        4.23514435      -4.13359030       1.53870904
H        2.36928757      -2.47514375       5.06531938
H        0.95194142      -1.05340966       3.64113596
H        4.43294572      -5.58298949       7.98182743
H        6.13118151      -5.02576747       7.79143093
H        7.41403390      -8.93517932       7.24648956
H        8.30985164     -10.14893076       9.19454844
H        5.11222297      -6.68883728      12.15629009
H        6.65321892      -7.21467769      12.83399196
H        5.28683398      -8.36351436      12.68159467
H        5.08187404      -6.44364007       9.86999929
C        7.75560856      -9.72661557      11.74103799
C        8.21439703     -10.35606638      12.66176641
Br       8.95621918     -11.37383511      14.15050638
C       -0.00445707       0.01189536      -1.78238275
H       -0.66409135       0.67374010      -2.43557963
H        0.65740317      -0.63156657      -2.45157240
C       -0.90989263      -0.90692880      -0.91072765
C        0.90977584       0.90977584      -0.90977584
C       -0.00465871       1.77757030       0.00794375
H       -0.66225468       2.44313916      -0.64384735
H        0.64322798       2.43503045       0.67728295
C       -1.78241447       0.00034974      -0.00472694
H       -2.45427497      -0.65498947       0.64260836
H       -2.43311707       0.67328779      -0.65473579
C       -0.91132561       0.90220522       0.91563759
C       -0.01476271      -0.02253852       1.78660255
H       -0.67934791      -0.69751639       2.42135241
H        0.63392994       0.61504881       2.47327442
C        0.01484550      -1.77751727      -0.01636693
H        0.67870853      -2.42144646      -0.68295456
H       -0.62264859      -2.45592969       0.64226336
C        1.78714474       0.01002794       0.00389507
H        2.44202412       0.67113390       0.66197326
H        2.45385902      -0.65136977      -0.64189061
C        0.91606151      -0.90478549       0.90901405
