141
Properties=species:S:1:pos:R:3 pbc="F F F"
C        0.00000000       0.00000000       0.00000000
C        0.88156446       0.88156446      -0.88156446
C        0.33596908       2.00017128      -1.50743693
C        1.14396594       2.80609793      -2.31636472
C        2.50102386       2.50013314      -2.50485829
C        3.03160711       1.36915341      -1.86485896
C        2.22609666       0.56156500      -1.05573698
C        3.35155829       3.33159755      -3.35145342
N        2.91863172       4.41563909      -4.01748082
O        4.05054309       4.86647717      -4.69282766
C        5.06316543       4.01582509      -4.36317220
C        6.39189427       4.30376898      -4.95469734
O        6.40359904       3.71399277      -6.25342942
C        7.55508519       3.81716271      -6.98819684
C        8.69833241       4.51990787      -6.59230989
C        9.82454606       4.56175915      -7.41987831
C        9.81062636       3.90046860      -8.64379090
C        8.67954442       3.19807846      -9.05197413
C        7.54149516       3.15534107      -8.23109053
C        6.33153119       2.38091709      -8.67871531
N        4.69310878       3.06616311      -3.53282946
H       -0.71252422       2.25434179      -1.37584887
H        0.70087035       3.67564358      -2.79973299
H        4.08028624       1.10607401      -1.99484668
H        2.65727997      -0.31067148      -0.57109989
H        7.17009700       3.85856811      -4.32441484
H        6.53632499       5.38817044      -5.02262109
H        8.75292902       5.04947727      -5.64699011
H       10.70543975       5.11169082      -7.09891559
H        8.67870313       2.68176575     -10.00912012
H        5.43886769       3.01466087      -8.65067208
H        6.18103885       1.51093106      -8.03124922
H        6.44327685       2.02052233      -9.70695377
C       10.97330088       3.94232749      -9.49234013
C       11.94704079       3.97738431     -10.20300010
Br      13.52149587       4.03406822     -11.35207718
C       -0.88156446      -0.88156446      -0.88156446
C       -0.91850019      -0.66747697      -2.25760013
C       -1.72787573      -1.47441682      -3.06413604
C       -2.50464133      -2.49964220      -2.50173175
C       -2.45276078      -2.69950579      -1.11335291
C       -1.64463047      -1.89416143      -0.30460675
C       -3.35685374      -3.34381784      -3.33393768
N       -3.48233545      -3.20466832      -4.66474786
O       -4.39597764      -4.19474062      -5.01912965
C       -4.72936707      -4.84448084      -3.86831481
C       -5.68975618      -5.96712033      -3.99348408
O       -6.99732144      -5.39733257      -3.97636722
C       -8.06475768      -6.25329277      -4.04239430
C       -7.97136173      -7.64053934      -4.19864910
C       -9.12724455      -8.42532736      -4.25361160
C      -10.37824500      -7.82533344      -4.15130743
C      -10.48710943      -6.44562020      -3.99686738
C       -9.33274679      -5.64825910      -3.94692088
C       -9.46509046      -4.16039121      -3.76568191
N       -4.11037532      -4.37308120      -2.80864483
H       -0.32592662       0.12150830      -2.71324811
H       -1.74642521      -1.29213244      -4.13768927
H       -3.04640191      -3.48561933      -0.64918568
H       -1.62105353      -2.06524965       0.76859481
H       -5.55770174      -6.64935072      -3.14602750
H       -5.51308855      -6.49804040      -4.93598758
H       -7.01710883      -8.14989415      -4.28239341
H       -9.03897469      -9.50181548      -4.37525599
H      -11.46912132      -5.98557608      -3.91489160
H       -8.92190545      -3.62842995      -4.55386524
H       -9.07111026      -3.86401379      -2.78809509
H      -10.51144844      -3.84099877      -3.81830575
C      -11.56679460      -8.63657302      -4.20460088
C      -12.56220489      -9.31598617      -4.24923415
Br     -14.17169914     -10.41453977      -4.32140237
C       -0.88156446       0.88156446       0.88156446
C       -2.00492051       0.33799766       1.50065911
C       -2.81295876       1.14689646       2.30657337
C       -2.50408632       2.50271241       2.49921656
C       -1.36750259       3.03090198       1.86721491
C       -0.55800301       2.22457520       1.06082044
C       -3.34390574       3.35681559       3.33388793
N       -4.45987541       2.93752675       3.95434947
O       -4.92903661       4.07726462       4.60354668
C       -4.04586592       5.07599701       4.32029979
C       -4.32678527       6.40172540       4.92184992
O       -5.25183832       7.06047161       4.05871130
C       -5.63682062       8.33233057       4.39129356
C       -5.24856726       9.00957066       5.55241225
C       -5.69931541      10.31043978       5.79642833
C       -6.53774575      10.93710814       4.88003197
C       -6.93380774      10.27521705       3.72057223
C       -6.49179193       8.96662073       3.46951411
C       -6.91647700       8.26884202       2.20584456
N       -3.04818751       4.68543072       3.55848312
H       -2.26274828      -0.70893349       1.36385163
H       -3.68843805       0.70633536       2.78147351
H       -1.10483257       4.07975598       1.99661838
H        0.31645919       2.65480781       0.57935975
H       -3.39282528       6.97116045       4.98909423
H       -4.75936864       6.26773973       5.92000816
H       -4.59647095       8.55943272       6.29349273
H       -5.38924094      10.82399201       6.70281320
H       -7.58714521      10.77397802       3.00846577
H       -7.36851268       7.29856406       2.43712390
H       -6.05285502       8.12106802       1.54929610
H       -7.66202077       8.85297626       1.65575593
C       -6.99742373      12.27824915       5.13229562
C       -7.38240403      13.40145475       5.34356642
Br      -8.00488463      15.21758320       5.68517344
C        0.88156446      -0.88156446       0.88156446
C        1.32804756      -2.11165925       0.40387048
C        2.13407569      -2.91938800       1.21296490
C        2.49912054      -2.50369907       2.50319568
C        2.03949777      -1.26061785       2.96550386
C        1.23340957      -0.45114399       2.15884508
C        3.33536933      -3.34159358       3.35764635
N        3.79717596      -4.55255546       3.00202021
O        4.51604902      -4.97634260       4.11745629
C        4.42735708      -3.97593510       5.03887055
C        5.13705084      -4.19043885       6.32287090
O        4.26406655      -4.95035379       7.15660089
C        4.69181556      -5.24433136       8.42429783
C        5.95052649      -4.91876722       8.94125646
C        6.28739025      -5.26558454      10.25320873
C        5.36662128      -5.93718339      11.05108118
C        4.11043766      -6.26917383      10.54998553
C        3.76493954      -5.93099106       9.23199617
C        2.39904257      -6.28364532       8.70847570
N        3.72786543      -2.94495099       4.61928492
H        1.05613027      -2.45304240      -0.59150623
H        2.47272408      -3.87887501       0.82464783
H        2.30475944      -0.91346759       3.96297990
H        0.88706882       0.50704172       2.53768128
H        5.35429973      -3.21850915       6.78027108
H        6.06888820      -4.73793016       6.14029817
H        6.69868868      -4.39586141       8.35484631
H        7.26901879      -5.00597407      10.64105329
H        3.39601679      -6.79171640      11.18185582
H        2.48086452      -6.84910943       7.77422669
H        1.81671930      -5.37317394       8.53332590
H        1.84518563      -6.90650058       9.41906674
C        5.71508364      -6.28983923      12.40304562
C        6.00692087      -6.58518849      13.53531584
Br       6.47879698      -7.06274327      15.36610102
