154
Properties=species:S:1:pos:R:3 pbc="F F F"
C        1.79146848       1.79146848      -1.79146848
C        1.24587311       2.91007530      -2.41734095
C        2.05386996       3.71600195      -3.22626875
C        3.41092788       3.41003717      -3.41476231
C        3.94151113       2.27905744      -2.77476299
C        3.13600068       1.47146903      -1.96564100
C        4.26146232       4.24150157      -4.26135745
N        3.82853575       5.32554312      -4.92738484
O        4.96044711       5.77638119      -5.60273169
C        5.97306945       4.92572912      -5.27307623
C        7.30179829       5.21367301      -5.86460137
O        7.31350307       4.62389679      -7.16333344
C        8.46498922       4.72706674      -7.89810086
C        9.60823643       5.42981190      -7.50221392
C       10.73445008       5.47166317      -8.32978233
C       10.72053039       4.81037263      -9.55369492
Br      12.24674044       4.86531961     -10.66756156
C        9.58944845       4.10798249      -9.96187815
C        8.45139918       4.06524510      -9.14099456
C        7.24143521       3.29082111      -9.58861933
N        5.60301281       3.97606713      -4.44273348
H        0.19737980       3.16424581      -2.28575289
H        1.61077438       4.58554760      -3.70963701
H        4.99019027       2.01597803      -2.90475071
H        3.56718399       0.59923254      -1.48100391
H        8.08000103       4.76847213      -5.23431887
H        7.44622902       6.29807447      -5.93252512
H        9.66283304       5.95938129      -6.55689413
H       11.61534377       6.02159484      -8.00881961
H        9.58860715       3.59166977     -10.91902414
H        6.34877172       3.92456489      -9.56057611
H        7.09094288       2.42083508      -8.94115325
H        7.35318088       2.93042636     -10.61685780
C       -1.79146848      -1.79146848      -1.79146848
C       -1.21106773      -2.78328682      -2.57893482
C       -2.01935641      -3.58914629      -3.38763796
C       -3.41141080      -3.40968490      -3.41463166
C       -3.97664302      -2.40538416      -2.61330437
C       -3.17095241      -1.59815641      -1.80400189
C       -4.26333110      -4.24170902      -4.25928122
N       -3.80191776      -5.20724797      -5.07229797
O       -4.95045193      -5.70782163      -5.68128643
C       -5.99885043      -5.00201350      -5.17101087
C       -7.34887053      -5.36968097      -5.66152116
O       -7.55115377      -4.66465966      -6.88491987
C       -8.75799240      -4.81744787      -7.51471655
C       -9.78254793      -5.66949233      -7.08822198
C      -10.97979609      -5.75019976      -7.80589975
C      -11.15565668      -4.97875098      -8.95019028
Br     -12.77750316      -5.08709050      -9.91502795
C      -10.14439221      -4.12716610      -9.38775077
C       -8.93620471      -4.04372013      -8.67771400
C       -7.85772693      -3.10889117      -9.15425755
N       -5.63547412      -4.10143324      -4.28490606
H       -0.13532324      -2.93821931      -2.57383595
H       -1.54906482      -4.35845504      -3.99843913
H       -5.05324390      -2.24180099      -2.61587411
H       -3.62957099      -0.82506327      -1.19278619
H       -8.09570319      -5.06922537      -4.91786347
H       -7.39682297      -6.45198330      -5.82802234
H       -9.68835812      -6.28852195      -6.20222840
H      -11.76678236      -6.41658528      -7.46239059
H      -10.29178762      -3.52574245     -10.28177100
H       -6.91130133      -3.64610598      -9.27650540
H       -7.72327015      -2.29282631      -8.43683474
H       -8.10931064      -2.66686410     -10.12429030
C       -1.79146848       1.79146848       1.79146848
C       -3.17616448       1.64367252       1.75345236
C       -3.98301986       2.45305783       2.56006297
C       -3.41224808       3.41423317       3.40924611
C       -2.01508817       3.54688094       3.43336245
C       -1.20603404       2.73917928       2.62789739
C       -4.24566631       4.26768855       4.25096648
N       -5.58867500       4.22191406       4.27087465
O       -5.94267338       5.20905151       5.18783510
C       -4.77791993       5.75209689       5.64185798
C       -4.89704075       6.82843771       6.65459420
O       -5.11331575       8.04517723       5.94224032
C       -5.21830582       9.19938443       6.67246657
C       -5.20231118       9.26812620       8.06982485
C       -5.31588536      10.50156453       8.71844570
C       -5.44439835      11.66838954       7.97181005
Br      -5.59289194      13.33445040       8.85227928
C       -5.46331401      11.61564918       6.58034590
C       -5.35630805      10.38151934       5.91981145
C       -5.36415591      10.34104031       4.41567943
N       -3.70800303       5.20226091       5.11154948
H       -3.63858199       0.90650543       1.10229109
H       -5.06374513       2.32567266       2.51654120
H       -1.54474237       4.28569987       4.08047676
H       -0.12628263       2.86013080       2.66100701
H       -3.96753488       6.88261159       7.23264556
H       -5.74235922       6.61544288       7.31902650
H       -5.10402211       8.38408361       8.69100275
H       -5.30182738      10.53930199       9.80462886
H       -5.56130494      12.53318282       6.00481331
H       -6.13126377       9.64775415       4.05489479
H       -4.38413770      10.02605148       4.04274202
H       -5.58701614      11.32474362       3.98870527
C        1.79146848      -1.79146848       1.79146848
C        3.17345077      -1.78368782       1.61615077
C        3.98005715      -2.59307271       2.42301080
C        3.41177807      -3.41448283       3.40946646
C        2.01743034      -3.40726659       3.57063463
C        1.20860668      -2.59923376       2.76527028
C        4.24422512      -4.26702383       4.25307238
N        5.58147079      -4.35114202       4.14885088
O        5.93416427      -5.28264138       5.12275434
C        4.77569113      -5.66669073       5.72949294
C        4.89699231      -6.65513389       6.82794646
O        4.93349887      -7.94571287       6.22152156
C        5.00625404      -9.03509182       7.04881096
C        5.12085835      -8.97735093       8.44205296
C        5.18709761     -10.15336502       9.19543296
C        5.13770206     -11.38893960       8.55795628
Br       5.22272630     -12.97656764       9.58032767
C        5.02514566     -11.46230265       7.17186078
C        4.96431411     -10.28730498       6.40601974
C        4.82868430     -10.38176359       4.91042776
N        3.71224504      -5.06428608       5.24528229
H        3.63375128      -1.15611356       0.85751366
H        5.05838124      -2.57630427       2.27127348
H        1.54872859      -4.03606334       4.32612707
H        0.13080262      -2.61064649       2.90597134
H        4.02731793      -6.56655849       7.48891561
H        5.81878457      -6.46751537       7.39052866
H        5.16279294      -8.03619354       8.98012199
H        5.27596643     -10.09276485      10.27702695
H        4.98439726     -12.43256732       6.68233650
H        5.61547916      -9.80163157       4.41680199
H        3.84883611     -10.00693189       4.59716321
H        4.92034274     -11.41660534       4.56351695
C       -0.00445707       0.01189536      -1.78238275
H       -0.66409135       0.67374010      -2.43557963
H        0.65740317      -0.63156657      -2.45157240
C       -0.90989263      -0.90692880      -0.91072765
C        0.90977584       0.90977584      -0.90977584
C       -0.00465871       1.77757030       0.00794375
H       -0.66225468       2.44313916      -0.64384735
H        0.64322798       2.43503045       0.67728295
C       -1.78241447       0.00034974      -0.00472694
H       -2.45427497      -0.65498947       0.64260836
H       -2.43311707       0.67328779      -0.65473579
C       -0.91132561       0.90220522       0.91563759
C       -0.01476271      -0.02253852       1.78660255
H       -0.67934791      -0.69751639       2.42135241
H        0.63392994       0.61504881       2.47327442
C        0.01484550      -1.77751727      -0.01636693
H        0.67870853      -2.42144646      -0.68295456
H       -0.62264859      -2.45592969       0.64226336
C        1.78714474       0.01002794       0.00389507
H        2.44202412       0.67113390       0.66197326
H        2.45385902      -0.65136977      -0.64189061
C        0.91606151      -0.90478549       0.90901405
