133
Properties=species:S:1:pos:R:3 pbc="F F F"
C        0.00000000       0.00000000       0.00000000
C        0.88156446       0.88156446      -0.88156446
C        0.33596908       2.00017128      -1.50743693
C        1.14396594       2.80609793      -2.31636472
C        2.50102386       2.50013314      -2.50485829
C        3.03160711       1.36915341      -1.86485896
C        2.22609666       0.56156500      -1.05573698
C        3.35155829       3.33159755      -3.35145342
N        2.91863172       4.41563909      -4.01748082
O        4.05054309       4.86647717      -4.69282766
C        5.06316543       4.01582509      -4.36317220
C        6.39189427       4.30376898      -4.95469734
O        6.40359904       3.71399277      -6.25342942
C        7.55508519       3.81716271      -6.98819684
C        8.69833241       4.51990787      -6.59230989
C        9.82454606       4.56175915      -7.41987831
C        9.81062636       3.90046860      -8.64379090
Br      11.33683642       3.95541558      -9.75765754
C        8.67954442       3.19807846      -9.05197413
C        7.54149516       3.15534107      -8.23109053
C        6.33153119       2.38091709      -8.67871531
N        4.69310878       3.06616311      -3.53282946
H       -0.71252422       2.25434179      -1.37584887
H        0.70087035       3.67564358      -2.79973299
H        4.08028624       1.10607401      -1.99484668
H        2.65727997      -0.31067148      -0.57109989
H        7.17009700       3.85856811      -4.32441484
H        6.53632499       5.38817044      -5.02262109
H        8.75292902       5.04947727      -5.64699011
H       10.70543975       5.11169082      -7.09891559
H        8.67870313       2.68176575     -10.00912012
H        5.43886769       3.01466087      -8.65067208
H        6.18103885       1.51093106      -8.03124922
H        6.44327685       2.02052233      -9.70695377
C       -0.88156446      -0.88156446      -0.88156446
C       -0.96570207      -0.62891814      -2.24895708
C       -1.77506346      -1.43594232      -3.05542281
C       -2.50469932      -2.49973077      -2.50158519
C       -2.40567360      -2.73807723      -1.12186865
C       -1.59744425      -1.93274829      -0.31320610
C       -3.35654784      -3.34449268      -3.33356874
N       -3.52563629      -3.17066966      -4.65544568
O       -4.42038771      -4.17687018      -5.01259003
C       -4.70035646      -4.86931450      -3.87249177
C       -5.63114038      -6.01599888      -4.00322134
O       -6.95356424      -5.48619193      -3.93126507
C       -7.99726123      -6.37133229      -3.99185123
C       -7.86843571      -7.75007017      -4.19204428
C       -9.00223379      -8.56705782      -4.23689191
C      -10.26647604      -8.00785072      -4.08055910
Br     -11.79655373      -9.11632176      -4.13703405
C      -10.41059265      -6.63704840      -3.88195597
C       -9.27882709      -5.80739863      -3.84170105
C       -9.44873527      -4.33001131      -3.61241701
N       -4.06394954      -4.41054784      -2.81760397
H       -0.41007477       0.19025030      -2.69784196
H       -1.83088951      -1.22328220      -4.12207521
H       -2.96219664      -3.55465496      -0.66435533
H       -1.53692977      -2.13406183       0.75328323
H       -5.45417312      -6.71824113      -3.18066571
H       -5.46735806      -6.51390003      -4.96585844
H       -6.90275568      -8.22810318      -4.31853754
H       -8.88649632      -9.63646088      -4.39308895
H      -11.40263255      -6.20906005      -3.75789640
H       -8.94492779      -3.75948845      -4.39978440
H       -9.03452517      -4.05044879      -2.63824517
H      -10.50500673      -4.04057438      -3.62517185
C       -0.88156446       0.88156446       0.88156446
C       -2.00212973       0.33679808       1.50464948
C       -2.81017511       1.14569178       2.31056170
C       -2.50409467       2.50270074       2.49921987
C       -1.37029581       3.03209067       1.86323299
C       -0.56079641       2.22577132       1.05683091
C       -3.34396066       3.35679150       3.33385711
N       -4.45743432       2.93632330       3.95799401
O       -4.92777280       4.07648903       4.60558609
C       -4.04767955       5.07664916       4.31783402
C       -4.33033721       6.40314038       4.91688301
O       -5.25902927       7.05760028       4.05439168
C       -5.64626351       8.32932852       4.38485272
C       -5.25685877       9.01027766       5.54341374
C       -5.71013991      10.31064619       5.78539742
C       -6.55226024      10.93310795       4.86951768
Br      -7.15909234      12.69292644       5.19789076
C       -6.94950640      10.26749301       3.71259761
C       -6.50495587       8.95935954       3.46361136
C       -6.93098818       8.25753885       2.20263656
N       -3.05089270       4.68664494       3.55456371
H       -2.25777289      -0.71107186       1.37096541
H       -3.68345696       0.70417770       2.78861226
H       -1.10983275       4.08187729       1.98949689
H        0.31147743       2.65693882       0.57224698
H       -3.39758714       6.97496755       4.98052527
H       -4.76020911       6.27051412       5.91639330
H       -4.60191408       8.56347920       6.28400311
H       -5.39913047      10.82711059       6.68980509
H       -7.60573953      10.76298072       3.00086874
H       -7.38014143       7.28673970       2.43731951
H       -6.06858735       8.11025727       1.54437451
H       -7.67924421       8.83856727       1.65294147
C        0.88156446      -0.88156446       0.88156446
C        1.33338872      -2.10875629       0.40143227
C        2.13941260      -2.91649463       1.21052135
C        2.49912215      -2.50371179       2.50318134
C        2.03416572      -1.26352649       2.96792727
C        1.22806869      -0.45405087       2.16127908
C        3.33531926      -3.34166331       3.35762669
N        3.80202574      -4.55005698       2.99966891
O        4.51873586      -4.97508938       4.11602268
C        4.42403307      -3.97785528       5.04027438
C        5.13038191      -4.19416308       6.32581561
O        4.25718306      -4.95940889       7.15442928
C        4.68188980      -5.25601917       8.42253578
C        5.93795399      -4.92814676       8.94444942
C        6.27180369      -5.27801876      10.25636107
C        5.35065594      -5.95498624      11.04924368
Br       5.80397601      -6.42203433      12.82389919
C        4.09708962      -6.28932670      10.54318070
C        3.75465156      -5.94809720       9.22517800
C        2.39150773      -6.30337367       8.69628219
N        3.72262876      -2.94775132       4.62172127
H        1.06565219      -2.44786697      -0.59585273
H        2.48227632      -3.87369811       0.82027248
H        2.29522207      -0.91867612       3.96730874
H        0.87754638       0.50185700       2.54201900
H        5.34315530      -3.22299737       6.78692729
H        6.06449552      -4.73816690       6.14445411
H        6.68630207      -4.40107239       8.36202193
H        7.25139806      -5.01656021      10.64808789
H        3.38233942      -6.81607486      11.17117472
H        2.47801808      -6.86564988       7.76053269
H        1.80688481      -5.39418111       8.52215322
H        1.83738830      -6.93017872       9.40318594
