162
Properties=species:S:1:pos:R:3 pbc="F F F"
C        1.79146848       1.79146848      -1.79146848
C        1.24587311       2.91007530      -2.41734095
C        2.05386996       3.71600195      -3.22626875
C        3.41092788       3.41003717      -3.41476231
C        3.94151113       2.27905744      -2.77476299
C        3.13600068       1.47146903      -1.96564100
C        4.26146232       4.24150157      -4.26135745
N        3.82853575       5.32554312      -4.92738484
O        4.96044711       5.77638119      -5.60273169
C        5.97306945       4.92572912      -5.27307623
C        7.30179829       5.21367301      -5.86460137
O        7.31350307       4.62389679      -7.16333344
C        8.46498922       4.72706674      -7.89810086
C        9.60823643       5.42981190      -7.50221392
C       10.73445008       5.47166317      -8.32978233
C       10.72053039       4.81037263      -9.55369492
C        9.58944845       4.10798249      -9.96187815
C        8.45139918       4.06524510      -9.14099456
C        7.24143521       3.29082111      -9.58861933
N        5.60301281       3.97606713      -4.44273348
H        0.19737980       3.16424581      -2.28575289
H        1.61077438       4.58554760      -3.70963701
H        4.99019027       2.01597803      -2.90475071
H        3.56718399       0.59923254      -1.48100391
H        8.08000103       4.76847213      -5.23431887
H        7.44622902       6.29807447      -5.93252512
H        9.66283304       5.95938129      -6.55689413
H       11.61534377       6.02159484      -8.00881961
H        9.58860715       3.59166977     -10.91902414
H        6.34877172       3.92456489      -9.56057611
H        7.09094288       2.42083508      -8.94115325
H        7.35318088       2.93042636     -10.61685780
C       11.88320491       4.85223151     -10.40224415
C       12.85694482       4.88728833     -11.11290413
Br      14.43139990       4.94397224     -12.26198121
C       -1.79146848      -1.79146848      -1.79146848
C       -1.21861846      -2.82395428      -2.53071663
C       -2.02681997      -3.62982874      -3.33949194
C       -3.41126146      -3.40978565      -3.41468025
C       -3.96898660      -2.36485524      -2.66148971
C       -3.16335654      -1.55751771      -1.85223646
C       -4.26278635      -4.24160423      -4.25993076
N       -3.80724198      -5.24506756      -5.02915416
O       -4.95194160      -5.72962582      -5.65799257
C       -5.99288527      -4.97744308      -5.20154644
C       -7.33833211      -5.31955173      -5.72218883
O       -7.48218204      -4.64680415      -6.97174711
C       -8.67380315      -4.78279630      -7.63355737
C       -9.73638739      -5.59032387      -7.21355098
C      -10.91358276      -5.65729375      -7.96501908
C      -11.03135198      -4.91653343      -9.13671253
C       -9.98173021      -4.10940874      -9.56817015
C       -8.79329302      -4.04026483      -8.82408099
C       -7.67279249      -3.15318044      -9.29490273
N       -5.62858215      -4.06126325      -4.33196802
H       -0.14878657      -3.01071759      -2.48787435
H       -1.56240367      -4.43128175      -3.91227356
H       -5.03948330      -2.16934577      -2.70208994
H       -3.61600643      -0.75261968      -1.27879433
H       -8.09743839      -4.97417011      -5.01118353
H       -7.41458981      -6.40455193      -5.85768686
H       -9.68780619      -6.18431856      -6.30698372
H      -11.73062163      -6.28898401      -7.62615259
H      -10.08377035      -3.53166180     -10.48386892
H       -6.74012675      -3.72193251      -9.37185345
H       -7.53476208      -2.31979431      -8.59837482
H       -7.88156227      -2.73391177     -10.28499100
C      -12.24633309      -4.98471825      -9.90662923
C      -13.26387977      -5.04182304     -10.55143447
Br     -14.90916669      -5.13415665     -11.59403000
C       -1.79146848       1.79146848       1.79146848
C       -3.17637201       1.64643726       1.75048009
C       -3.98322201       2.45582303       2.55709562
C       -3.41223840       3.41423898       3.40924998
C       -2.01487337       3.54412481       3.43633337
C       -1.20582360       2.73641618       2.63087093
C       -4.24563390       4.26767819       4.25100924
N       -5.58876498       4.22447472       4.26822400
O       -5.94262940       5.21051807       5.18641252
C       -4.77770941       5.75041784       5.64374754
C       -4.89671025       6.82502214       6.65834027
O       -5.10924080       8.04355871       5.94793379
C       -5.21341103       9.19654948       6.68019631
C       -5.19999821       9.26255012       8.07771391
C       -5.31244030      10.49494666       8.72850863
C       -5.43723937      11.66346486       7.98389371
C       -5.45355362      11.61345982       6.59229565
C       -5.34765790      10.38040765       5.92957329
C       -5.35266172      10.34286087       4.42535307
N       -3.70783241       5.19953348       5.11444753
H       -3.63895210       0.91143417       1.09699223
H       -5.06410567       2.33062259       2.51123074
H       -1.54435395       4.28077218       4.08579288
H       -0.12590603       2.85520510       2.66630932
H       -3.96822598       6.87626881       7.23829724
H       -5.74372957       6.61238207       7.32071696
H       -5.10463081       8.37711528       8.69736238
H       -5.30041965      10.53055030       9.81478828
H       -5.54864662      12.53229649       6.01835797
H       -6.12041012       9.65176746       4.06173514
H       -4.37253342      10.02669227       4.05370552
H       -5.57278387      11.32782149       3.99985967
C       -5.54920406      12.93159272       8.65688379
C       -5.64297450      13.99364979       9.22051298
Br      -5.79459336      15.71090627      10.13185372
C        1.79146848      -1.79146848       1.79146848
C        3.17273990      -1.79007607       1.61047339
C        3.97933597      -2.59945987       2.41734482
C        3.41175753      -3.41449223       3.40947760
C        2.01812410      -3.40089508       3.57631237
C        1.20931141      -2.59284810       2.77095121
C        4.24416825      -4.26698729       4.25316579
N        5.58061997      -4.35701801       4.14382572
O        5.93349718      -5.28596867       5.12009414
C        4.77596381      -5.66277744       5.73313355
C        4.89773101      -6.64721228       6.83512937
O        4.92647342      -7.94039799       6.23386189
C        4.99817005      -9.02667598       7.06531079
C        5.11872621      -8.96371199       8.45782404
C        5.18324962     -10.13689900       9.21574697
C        5.12618875     -11.37485561       8.58355358
C        5.00764594     -11.45342070       7.19824245
C        4.94847486     -10.28132321       6.42784077
C        4.80632344     -10.38133635       4.93321587
N        3.71301052      -5.05799763       5.25080527
H        3.63248429      -1.16750205       0.84739217
H        5.05708777      -2.58773727       2.26113395
H        1.54996071      -4.02466994       4.33628835
H        0.13205621      -2.59926233       2.91610190
H        4.03114582      -6.55236778       7.49927843
H        5.82258343      -6.46108052       7.39316465
H        5.16671496      -8.02054330       8.99185021
H        5.27680342     -10.07224392      10.29671089
H        4.96092361     -12.42550263       6.71287483
H        5.59345038      -9.80646054       4.43400179
H        3.82673806     -10.00377006       4.62242309
H        4.89232708     -11.41795478       4.59018318
C        5.18921262     -12.58138092       9.36708703
C        5.24199512     -13.59184587      10.02329629
Br       5.32733995     -15.22568223      11.08433116
C       -0.00445707       0.01189536      -1.78238275
H       -0.66409135       0.67374010      -2.43557963
H        0.65740317      -0.63156657      -2.45157240
C       -0.90989263      -0.90692880      -0.91072765
C        0.90977584       0.90977584      -0.90977584
C       -0.00465871       1.77757030       0.00794375
H       -0.66225468       2.44313916      -0.64384735
H        0.64322798       2.43503045       0.67728295
C       -1.78241447       0.00034974      -0.00472694
H       -2.45427497      -0.65498947       0.64260836
H       -2.43311707       0.67328779      -0.65473579
C       -0.91132561       0.90220522       0.91563759
C       -0.01476271      -0.02253852       1.78660255
H       -0.67934791      -0.69751639       2.42135241
H        0.63392994       0.61504881       2.47327442
C        0.01484550      -1.77751727      -0.01636693
H        0.67870853      -2.42144646      -0.68295456
H       -0.62264859      -2.45592969       0.64226336
C        1.78714474       0.01002794       0.00389507
H        2.44202412       0.67113390       0.66197326
H        2.45385902      -0.65136977      -0.64189061
C        0.91606151      -0.90478549       0.90901405
