62
Properties=species:S:1:pos:R:3 pbc="F F F"
C        1.79541709       1.79541709      -1.79541709
C        1.20785999       2.48942672      -2.84482364
C        2.01953322       3.28981074      -3.64208008
C        3.38040983       3.36699613      -3.36328533
C        3.87490195       2.63565897      -2.29199306
Br       5.72853232       2.73194714      -1.90095050
N        3.11112967       1.85238605      -1.50332264
H        0.14426616       2.41382497      -3.04321407
H        1.59572246       3.84798099      -4.47256288
H        4.03219936       3.98470147      -3.97153139
C       -1.79541709      -1.79541709      -1.79541709
C       -2.72135378      -2.63299018      -1.18776638
C       -3.51969526      -3.43211258      -1.99961620
C       -3.36457007      -3.36550231      -3.38061891
C       -2.41139036      -2.49683084      -3.89433278
Br      -2.18965055      -2.39626376      -5.77551564
N       -1.62459001      -1.71138350      -3.13086484
H       -2.82455167      -2.66807270      -0.10868083
H       -4.25557530      -4.10028133      -1.56040970
H       -3.97610598      -3.97938240      -4.03294384
C       -1.79541709       1.79541709       1.79541709
C       -2.12614642       1.34823625       3.06772767
C       -2.92973303       2.15867196       3.86301905
C       -3.37080570       3.37893776       3.36094783
C       -2.98693712       3.73916347       2.07645339
Br      -3.58137614       5.40030183       1.37975198
N       -2.20920026       2.97325199       1.28438611
H       -1.77048897       0.39285961       3.43795661
H       -3.20954131       1.84242391       4.86430110
H       -3.99816692       4.02699613       3.96326916
C        1.79541709      -1.79541709       1.79541709
C        3.17099589      -1.60883886       1.76227560
C        3.96537856      -2.41698140       2.56906410
C        3.35986979      -3.37621728       3.37460422
C        1.97659372      -3.48716251       3.33879774
Br       1.13828804      -4.79095524       4.43218667
N        1.18295834      -2.71729382       2.56658619
H        3.62083933      -0.85437349       1.12609238
H        5.04578675      -2.30041221       2.57006736
H        3.95944236      -4.01733900       4.01165087
C       -0.00445707       0.01189536      -1.78238275
H       -0.66409135       0.67374010      -2.43557963
H        0.65740317      -0.63156657      -2.45157240
C       -0.90989263      -0.90692880      -0.91072765
C        0.90977584       0.90977584      -0.90977584
C       -0.00465871       1.77757030       0.00794375
H       -0.66225468       2.44313916      -0.64384735
H        0.64322798       2.43503045       0.67728295
C       -1.78241447       0.00034974      -0.00472694
H       -2.45427497      -0.65498947       0.64260836
H       -2.43311707       0.67328779      -0.65473579
C       -0.91132561       0.90220522       0.91563759
C       -0.01476271      -0.02253852       1.78660255
H       -0.67934791      -0.69751639       2.42135241
H        0.63392994       0.61504881       2.47327442
C        0.01484550      -1.77751727      -0.01636693
H        0.67870853      -2.42144646      -0.68295456
H       -0.62264859      -2.45592969       0.64226336
C        1.78714474       0.01002794       0.00389507
H        2.44202412       0.67113390       0.66197326
H        2.45385902      -0.65136977      -0.64189061
C        0.91606151      -0.90478549       0.90901405
