181
Properties=species:S:1:pos:R:3 pbc="F F F"
C        0.00000000       0.00000000       0.00000000
C        0.03574778      11.76169488       1.54996840
C        0.41087958      10.45545062       0.92107207
C        0.05159019       9.24434314       1.51927315
C        0.42354247       8.02470321       0.93813999
C        1.17560037       7.97979441      -0.24247793
C        1.54392959       9.20198296      -0.82208843
C        1.17283945      10.42450715      -0.24964077
C        1.55543009       6.70034102      -0.85626651
C        1.16599792       5.34309396      -0.33614502
C        2.16486517       4.46696243      -1.07602770
H        3.12350202       4.50040955      -0.53140732
N        2.24952169       5.18765219      -2.33817410
N        2.27990992       6.62055212      -1.99521216
C        3.35751315       4.65415312      -3.12343713
H        4.31130750       4.82743751      -2.60533965
O        3.28249745       3.21171264      -3.34573306
C        2.48810426       2.48360825      -2.49635021
C        2.30557700       1.13795726      -2.81458629
C        1.49809712       0.33408837      -2.00862626
C        0.88301833       0.88301833      -0.88301833
C        1.06813857       2.22520062      -0.55192558
C        1.86729308       3.03414655      -1.36708166
C        3.43673866       5.26088061      -4.52121190
C        2.36169042       5.13071864      -5.41803773
C        2.42877647       5.67142580      -6.70250323
C        3.57421378       6.35413733      -7.10836946
C        4.64253484       6.49696409      -6.22284205
Br       6.19107623       7.43547886      -6.77378574
C        4.58152569       5.95734940      -4.93812721
H       -0.88700361      11.66619815       2.13176799
H       -0.14139315      12.52506428       0.78516480
H        0.83662728      12.10255126       2.21299238
H       -0.52630684       9.23254185       2.43888794
H        0.11319670       7.10400298       1.42077270
H        2.12551575       9.20003089      -1.74192050
H        1.48328069      11.34403025      -0.73682520
H        0.12496624       5.11712392      -0.59674860
H        1.29683847       5.24585563       0.74614207
H        2.78508734       0.72724922      -3.69768427
H        1.35383390      -0.70929514      -2.26919397
H        0.59258254       2.64833754       0.32760674
H        1.46002487       4.62219104      -5.07990862
H        1.58013666       5.57106333      -7.37163325
H        3.61763552       6.78181032      -8.10453434
H        5.40691614       6.08817686      -4.24430014
C       -6.23590136      -8.85444770       4.84287481
C       -5.71393673      -7.97793543       3.74661403
C       -5.01240052      -6.80541333       4.04115367
C       -4.54463900      -5.97743113       3.01196445
C       -4.77731735      -6.28648339       1.66592803
C       -5.49732774      -7.45624656       1.38557331
C       -5.96454753      -8.29055846       2.40811862
C       -4.27686922      -5.42308647       0.58791807
C       -3.45559249      -4.17829091       0.78864650
C       -3.61959398      -3.51719367      -0.57106765
H       -4.58639592      -2.98627503      -0.58264793
N       -3.65463711      -4.69608433      -1.42462654
N       -4.48271500      -5.69171747      -0.72124173
C       -4.06105621      -4.30404574      -2.77000145
H       -5.08395973      -3.90191969      -2.75820524
O       -3.22867892      -3.25542071      -3.35584353
C       -2.48339406      -2.48844608      -2.49622257
C       -1.58095032      -1.59859748      -3.07857276
C       -0.77476640      -0.79481218      -2.27123317
C       -0.88301833      -0.88301833      -0.88301833
C       -1.78981917      -1.76297061      -0.29247499
C       -2.58885905      -2.57793434      -1.10172790
C       -3.99468007      -5.45748783      -3.76666327
C       -2.77793526      -6.11653406      -4.01597747
C       -2.70405633      -7.16444762      -4.93420155
C       -3.84982956      -7.57087756      -5.61601346
C       -5.06379413      -6.92975308      -5.36879375
Br      -6.61968027      -7.49302191      -6.28763865
C       -5.14325257      -5.88075550      -4.45299423
H       -5.61225661      -8.77457597       5.73940604
H       -6.22950863      -9.90578215       4.53678445
H       -7.25967158      -8.56545439       5.09893981
H       -4.81482011      -6.52400409       5.07147713
H       -3.98939834      -5.08384275       3.27681411
H       -5.69115535      -7.72538487       0.34907308
H       -6.51790223      -9.18537355       2.13913965
H       -2.41429639      -4.43845078       1.01390841
H       -3.84578904      -3.53122655       1.58046355
H       -1.50325301      -1.54665082      -4.16011701
H       -0.06857654      -0.11241637      -2.73273982
H       -1.87572043      -1.82561421       0.78802131
H       -1.89578053      -5.81114586      -3.45519814
H       -1.75658273      -7.66772565      -5.09852486
H       -3.78955245      -8.39302644      -6.32140128
H       -6.09410206      -5.39746001      -4.24783106
C       -2.50353387      -3.35607097      11.10001136
C       -2.54884067      -2.48578508       9.88220255
C       -1.68785043      -2.71680556       8.80561531
C       -1.71933292      -1.88649223       7.67726500
C       -2.59575749      -0.79689475       7.59900997
C       -3.44130949      -0.56655005       8.69324154
C       -3.41848730      -1.39388513       9.82238520
C       -2.63509807       0.06608818       6.41085138
C       -1.80381200      -0.13065299       5.17207789
C       -1.94137732       1.23959211       4.52688587
H       -1.22258126       1.92263724       5.01010038
N       -3.31037776       1.56176365       4.90320656
N       -3.46867514       1.12518865       6.30181041
C       -3.57692121       2.96285860       4.59532359
H       -2.93010642       3.61620151       5.19777674
O       -3.31646379       3.32087407       3.20260530
C       -2.49411282       2.49195271       2.48199718
C       -2.37955072       2.76044703       1.11812281
C       -1.57465934       1.95259255       0.31355986
C       -0.88301833       0.88301833       0.88301833
C       -0.98408354       0.61344307       2.24773816
C       -1.80107468       1.41554502       3.05190158
C       -5.03272793       3.35315267       4.83295058
C       -6.06838451       2.70521357       4.13684871
C       -7.40195694       3.06277365       4.33797491
C       -7.71961318       4.07446934       5.24263805
C       -6.70011169       4.71695997       5.94526931
Br      -7.13678642       6.08164731       7.18190711
C       -5.36519301       4.36458334       5.74722594
H       -2.16720230      -4.36705458      10.84727882
H       -3.49783065      -3.44860937      11.54928505
H       -1.81798949      -2.93122352      11.83942019
H       -0.98764495      -3.54690627       8.82660839
H       -1.04850183      -2.10529597       6.85322112
H       -4.13622414       0.27034012       8.66090288
H       -4.09304699      -1.17318866      10.64427780
H       -2.21988765      -0.93646489       4.55541601
H       -0.75394829      -0.34881616       5.39141991
H       -2.92958111       3.59193338       0.68850634
H       -1.49907866       2.16289346      -0.74823938
H       -0.44048061      -0.21628766       2.68912038
H       -5.81099698       1.89555567       3.45557187
H       -8.18494821       2.53775921       3.80012582
H       -8.75874247       4.34190414       5.40333357
H       -4.57555279       4.85275137       6.31108898
C        8.03403171       4.96558541       7.17902795
C        7.27721488       3.85329751       6.52134076
C        6.13669606       4.11787946       5.75784358
C        5.41959933       3.07167475       5.16218111
C        5.80941044       1.73636161       5.32482388
C        6.94489582       1.48436034       6.10746550
C        7.66881176       2.52442347       6.70259909
C        5.06285260       0.64155628       4.69074130
C        3.86538735       0.81661231       3.79646186
C        3.29553414      -0.59318261       3.81913855
H        2.70245017      -0.71121487       4.74165385
N        4.52838731      -1.36499882       3.88196184
N        5.41157805      -0.65785292       4.82624323
C        4.20874849      -2.75992242       4.16643249
H        3.73830341      -2.85003746       5.15574380
O        3.26455515      -3.35339521       3.22199280
C        2.48935586      -2.49581572       2.48289113
C        1.70765260      -3.06992616       1.48054179
C        0.90377116      -2.26242944       0.67461115
C        0.88301833      -0.88301833       0.88301833
C        1.65398152      -0.30174502       1.88953823
C        2.46961035      -1.10986584       2.68904509
C        5.43359541      -3.66846674       4.11676902
C        6.19015520      -3.78311585       2.93717574
C        7.30479156      -4.62023156       2.87768238
C        7.68108624      -5.35455533       4.00107901
C        6.94270050      -5.24057072       5.17906975
Br       7.46448008      -6.22998661       6.70587414
C        5.82678333      -4.40634774       5.24387122
H        7.93156831       5.89768384       6.61354207
H        9.10287862       4.73287310       7.22850081
H        7.65829619       5.12614332       8.19403329
H        5.79501555       5.13836904       5.61070056
H        4.54885664       3.31499347       4.56256381
H        7.27507141       0.45716495       6.24956069
H        8.54120405       2.27721672       7.30014881
H        4.17854503       1.13430681       2.79460053
H        3.13733958       1.53211652       4.19132899
H        1.74006044      -4.14395645       1.32600394
H        0.30635575      -2.71651295      -0.10913596
H        1.63173672       0.77137102       2.05294764
H        5.90531952      -3.18157341       2.07523159
H        7.88187933      -4.68051356       1.96044036
H        8.55464616      -5.99621490       3.95311912
H        5.26637318      -4.30431813       6.16870182
