153
Properties=species:S:1:pos:R:3 pbc="F F F"
C        0.00000000       0.00000000       0.00000000
C        0.88153828       0.88153828      -0.88153828
C        1.09333369       0.53560370      -2.21360031
C        1.90694490       1.33872362      -3.01783315
C        2.52646461       2.47789165      -2.49111172
C        2.28384283       2.82626584      -1.15592550
C        1.46734267       2.02765557      -0.34975923
C        3.39067602       3.33491661      -3.30034994
H        3.28309124       4.40844234      -3.16699570
C        4.46560078       2.90744236      -4.18434314
S        5.05152377       1.30737886      -4.38434097
C        6.20852330       1.71196307      -5.67463867
H        5.90994893       1.27626431      -6.63419497
N        7.57609864       1.37639571      -5.33300766
C        8.38524930       2.41422793      -5.98391197
H        8.54337956       2.14452276      -7.03469068
N        7.54602382       3.61779676      -5.97015360
N        6.23051124       3.13247296      -5.79600263
C        5.38060960       3.81186535      -4.94118065
O        5.34045663       5.01447883      -4.72686644
C        9.71486702       2.59314303      -5.27706512
C        9.84161147       3.53419986      -4.23158150
C       11.03900593       3.69003937      -3.53027692
C       12.13703359       2.89995874      -3.84800413
C       12.03588026       1.95242112      -4.86449130
C       10.83596838       1.79464021      -5.57121791
H        0.63445964      -0.35387566      -2.63682417
H        2.04897163       1.05986473      -4.05902101
H        2.74107603       3.71483826      -0.72498771
H        1.30103640       2.30611371       0.68738748
H        7.64889758       1.54889393      -4.33308375
H        7.61474794       4.09671675      -6.86835677
H        8.99545190       4.16034676      -3.94842464
H       11.10766688       4.42616041      -2.73276280
H       13.06879532       3.01565892      -3.30046940
H       12.89919745       1.33227642      -5.09481902
C       10.81787392       0.77519499      -6.58807781
C       10.80271980      -0.07859038      -7.43969797
Br      10.77821688      -1.45908911      -8.81669574
C       -0.88153828      -0.88153828      -0.88153828
C       -1.65499889      -0.30301285      -1.88452596
C       -2.46787882      -1.10973325      -2.68588960
C       -2.52607169      -2.49244831      -2.47694799
C       -1.72334856      -3.06252986      -1.48015575
C       -0.90599635      -2.25926197      -0.67949914
C       -3.37177185      -3.36465531      -3.28951542
H       -2.94527647      -4.31612273      -3.59713007
C       -4.76936760      -3.15103526      -3.63698342
S       -5.78466646      -1.89044737      -3.06812976
C       -7.18818489      -2.34217451      -4.06476564
H       -7.39225636      -1.59190645      -4.83624540
N       -8.36777208      -2.64001305      -3.27771688
C       -9.05832263      -3.69435321      -4.03071336
H       -9.65965684      -3.23750801      -4.82542816
N       -7.99028313      -4.45893971      -4.68475135
N       -6.88074430      -3.58413846      -4.69410407
C       -5.62847193      -4.09804017      -4.40714349
O       -5.19821060      -5.21073744      -4.67285387
C       -9.93385619      -4.53214097      -3.11907801
C       -9.41245638      -5.69141618      -2.50352027
C      -10.17828634      -6.45814221      -1.62289366
C      -11.48136897      -6.07834456      -1.32528293
C      -12.01650959      -4.93038353      -1.90589958
C      -11.25095664      -4.15957381      -2.79129605
H       -1.63614030       0.77054112      -2.05180897
H       -3.05370524      -0.64127065      -3.47288148
H       -1.73812115      -4.13668747      -1.30609338
H       -0.30014234      -2.71730207       0.09768178
H       -8.01650844      -3.08260089      -2.43176592
H       -8.25928394      -4.67587199      -5.64466554
H       -8.38953537      -6.00953957      -2.70514837
H       -9.75080289      -7.34833688      -1.16745033
H      -12.07809254      -6.67049181      -0.63633929
H      -13.03354688      -4.63780951      -1.65493650
C      -11.87906998      -2.97826204      -3.32381470
C      -12.40511490      -1.98891342      -3.76979907
Br     -13.25568506      -0.38922039      -4.49091807
C       -0.88153828       0.88153828       0.88153828
C       -1.07603998       2.21920919       0.54728852
C       -1.87667788       3.02764968       1.35917412
C       -2.46975111       2.50950566       2.51621122
C       -2.28471385       1.15564300       2.82567732
C       -1.48798580       0.34306403       2.01370764
C       -3.30491099       3.32816619       3.39286539
H       -4.20862462       2.86681669       3.78308797
C       -3.00052301       4.65951302       3.89735025
S       -1.53464181       5.52497420       3.68362758
C       -2.09595027       7.00847288       4.49070189
H       -2.20128950       7.83702755       3.78209116
N       -1.27989464       7.37506072       5.63054665
C       -2.22119314       7.98310540       6.57909066
H       -2.37988457       9.03370212       6.30900632
N       -3.49243342       7.28485794       6.35668284
N       -3.36933961       6.72396879       5.06567843
C       -3.84067541       5.44062878       4.85235140
O       -4.80353638       4.90100624       5.37725929
C       -1.70927312       7.87352602       8.00227603
C       -2.05374693       6.75742606       8.79621985
C       -1.56126897       6.60419919      10.09385406
C       -0.70143897       7.55691999      10.62663749
C       -0.33213182       8.66037772       9.86028315
C       -0.82588844       8.81779542       8.55814264
H       -0.61094818       2.64444966      -0.33798970
H       -2.02798443       4.06582780       1.07404514
H       -2.74627738       0.72330075       3.71132387
H       -1.34482480      -0.70158941       2.27652724
H       -0.99340577       6.49166491       6.04580458
H       -4.26062040       7.95620373       6.36299733
H       -2.71540149       5.98523859       8.40358322
H       -1.84770904       5.73605259      10.68282847
H       -0.31264449       7.43768236      11.63459680
H        0.35108686       9.39229469      10.28508505
C       -0.37120563       9.97625438       7.83368671
C        0.00959123      10.94646375       7.22695488
Br       0.62530755      12.51521025       6.24592081
C        0.88153828      -0.88153828       0.88153828
C        1.41683864      -2.05926447       0.36643459
C        2.21717869      -2.86982865       1.17649434
C        2.47014940      -2.51797825       2.50734033
C        1.94480960      -1.31766947       3.00355510
C        1.14734292      -0.50242282       2.19499172
C        3.29440978      -3.34627607       3.38525672
H        3.99337888      -2.82813586       4.03701455
C        3.20117739      -4.78756679       3.56864209
S        2.01870787      -5.83121890       2.89331682
C        2.73619628      -7.33119598       3.52773279
H        3.14181597      -7.95479953       2.72379271
N        1.83065060      -8.07401215       4.38083926
C        2.69854446      -8.69689160       5.38795315
H        3.12599695      -9.61918365       4.97741240
N        3.80733918      -7.75378324       5.57285177
N        3.79576784      -6.95755566       4.40566334
C        4.00826845      -5.59588908       4.52949807
O        4.72330216      -5.02129486       5.33720488
C        1.93192893      -8.99010335       6.66304289
C        1.88091178      -8.02942519       7.69705586
C        1.14569234      -8.25012065       8.86350923
C        0.43218704      -9.43208333       9.02072609
C        0.45175055     -10.39097963       8.01006251
C        1.18990065     -10.17310705       6.83881880
H        1.21865044      -2.35812187      -0.65936416
H        2.63750972      -3.77824472       0.75210293
H        2.13800792      -1.01269589       4.03019819
H        0.73737196       0.41847777       2.60086844
H        1.29103477      -7.36625546       4.87358503
H        4.68912686      -8.26409483       5.62659977
H        2.41845077      -7.08614157       7.59963095
H        1.12881652      -7.49341392       9.64435966
H       -0.14495880      -9.60440933       9.92547310
H       -0.12089065     -11.30636590       8.14081763
C        1.13199100     -11.20896174       5.84019398
C        1.08349167     -12.07649004       5.00384568
Br       1.00507236     -13.47920992       3.65154123
