145
Properties=species:S:1:pos:R:3 pbc="F F F"
C        0.00000000       0.00000000       0.00000000
C        0.88153828       0.88153828      -0.88153828
C        1.09333369       0.53560370      -2.21360031
C        1.90694490       1.33872362      -3.01783315
C        2.52646461       2.47789165      -2.49111172
C        2.28384283       2.82626584      -1.15592550
C        1.46734267       2.02765557      -0.34975923
C        3.39067602       3.33491661      -3.30034994
H        3.28309124       4.40844234      -3.16699570
C        4.46560078       2.90744236      -4.18434314
S        5.05152377       1.30737886      -4.38434097
C        6.20852330       1.71196307      -5.67463867
H        5.90994893       1.27626431      -6.63419497
N        7.57609864       1.37639571      -5.33300766
C        8.38524930       2.41422793      -5.98391197
H        8.54337956       2.14452276      -7.03469068
N        7.54602382       3.61779676      -5.97015360
N        6.23051124       3.13247296      -5.79600263
C        5.38060960       3.81186535      -4.94118065
O        5.34045663       5.01447883      -4.72686644
C        9.71486702       2.59314303      -5.27706512
C        9.84161147       3.53419986      -4.23158150
C       11.03900593       3.69003937      -3.53027692
C       12.13703359       2.89995874      -3.84800413
C       12.03588026       1.95242112      -4.86449130
C       10.83596838       1.79464021      -5.57121791
Br      10.81206315       0.44781538      -6.91462718
H        0.63445964      -0.35387566      -2.63682417
H        2.04897163       1.05986473      -4.05902101
H        2.74107603       3.71483826      -0.72498771
H        1.30103640       2.30611371       0.68738748
H        7.64889758       1.54889393      -4.33308375
H        7.61474794       4.09671675      -6.86835677
H        8.99545190       4.16034676      -3.94842464
H       11.10766688       4.42616041      -2.73276280
H       13.06879532       3.01565892      -3.30046940
H       12.89919745       1.33227642      -5.09481902
C       -0.88153828      -0.88153828      -0.88153828
C       -1.47938508      -0.34448287      -2.01866975
C       -2.29273594      -1.14997627      -2.82078947
C       -2.52725205      -2.48729921      -2.48091672
C       -1.89890175      -3.01966722      -1.34746520
C       -1.08144784      -2.21811870      -0.54519093
C       -3.37929228      -3.35546579      -3.29118450
H       -3.03383933      -4.37378090      -3.45090905
C       -4.70152846      -3.04206894      -3.81378888
S       -5.62058048      -1.62917975      -3.49348337
C       -6.95798448      -2.04602604      -4.59111453
H       -6.99707698      -1.37072477      -5.45260646
N       -8.23716575      -2.13236626      -3.91597000
C       -8.96240306      -3.18954784      -4.63143830
H       -9.42489744      -2.76670856      -5.53098700
N       -7.92669273      -4.12709616      -5.08018530
N       -6.73040480      -3.37570371      -5.05287833
C       -5.57953985      -3.97803425      -4.57608150
O       -5.25277740      -5.15137675      -4.67764776
C      -10.01450519      -3.82632838      -3.74424160
C       -9.69207128      -4.95559958      -2.95972198
C      -10.62458831      -5.53673311      -2.09800081
C      -11.89993904      -4.99592788      -1.98912954
C      -12.24076580      -3.87251162      -2.73951527
C      -11.30757968      -3.28785115      -3.60639567
Br     -11.88073317      -1.74052390      -4.55324864
H       -1.32281180       0.69592132      -2.29051767
H       -2.73937338      -0.71635218      -3.71213181
H       -2.05219013      -4.06031737      -1.06839450
H       -0.61284642      -2.64457275       0.33765654
H       -8.02543369      -2.51003577      -2.99540580
H       -8.11991898      -4.42250624      -6.03739624
H       -8.69640948      -5.39627698      -3.01153685
H      -10.34845733      -6.40857345      -1.50955932
H      -12.62622871      -5.44321254      -1.31548240
H      -13.23848324      -3.45212327      -2.63568638
C       -0.88153828       0.88153828       0.88153828
C       -1.15859601       2.18995669       0.49398499
C       -1.95908817       2.99894238       1.30547112
C       -2.46952638       2.51173963       2.51420197
C       -2.20228169       1.18547394       2.87827853
C       -1.40548653       0.37216884       2.06710211
C       -3.30187821       3.33252014       3.39154423
H       -4.16166487       2.84870089       3.84816351
C       -3.04088697       4.70049680       3.81600251
S       -1.63211662       5.62314382       3.48798315
C       -2.22792840       7.11675191       4.25044474
H       -2.40838323       7.90276270       3.50926227
N       -1.37779673       7.57856479       5.32914048
C       -2.30204110       8.18777228       6.29357583
H       -2.52591842       9.21473176       5.98194282
N       -3.54584085       7.41936333       6.16877002
N       -3.45655061       6.80096934       4.90146689
C       -3.87259687       5.48751234       4.77354639
O       -4.78103507       4.92953697       5.37122987
C       -1.71791593       8.17424741       7.69291182
C       -1.96770479       7.08418655       8.55550149
C       -1.40678020       7.01989609       9.83264593
C       -0.57134559       8.03808934      10.27556153
C       -0.29483207       9.11810703       9.43985359
C       -0.85745749       9.18629130       8.15807772
Br      -0.38062430      10.69378996       7.10009145
H       -0.75820121       2.59199435      -0.43278741
H       -2.17569390       4.01311132       0.97905215
H       -2.59878305       0.77653844       3.80558050
H       -1.19774715      -0.64996724       2.37198272
H       -1.02788124       6.73178434       5.77120968
H       -4.34554245       8.05274369       6.18153532
H       -2.60780052       6.26258041       8.23384238
H       -1.62089086       6.16968760      10.47601164
H       -0.12938820       7.98823362      11.26730182
H        0.37033056       9.90218137       9.79444208
C        0.88153828      -0.88153828       0.88153828
C        1.13808605      -2.19780462       0.50664703
C        1.93860991      -3.00665674       1.31823502
C        2.46956257      -2.51119573       2.51470968
C        2.22275521      -1.17748685       2.86579212
C        1.42598355      -0.36435725       2.05441667
C        3.30260176      -3.33143643       3.39190438
H        4.17364830      -2.85266670       3.83221428
C        3.03035498      -4.69092423       3.83610707
S        1.60669026      -5.60022157       3.53633176
C        2.19372649      -7.09169223       4.30970633
H        2.35566507      -7.88870692       3.57603622
N        1.35130241      -7.53009759       5.40410201
C        2.27982815      -8.13886754       6.36469351
H        2.48751581      -9.17215459       6.06292261
N        3.53117351      -7.38722604       6.21557463
N        3.43390034      -6.78308805       4.94199844
C        3.86413579      -5.47643180       4.79308801
O        4.78643778      -4.92241168       5.37295245
C        1.71299887      -8.10138632       7.77068999
C        1.98637944      -7.00414634       8.61686705
C        1.44186974      -6.91766029       9.89979219
C        0.59969863      -7.92019565      10.36510218
C        0.30004568      -9.00674480       9.54600221
C        0.84615267      -9.09720056       8.25847328
Br       0.33835641     -10.61140291       7.22474640
H        0.72162066      -2.60606002      -0.41027253
H        2.13900086      -4.02724449       1.00161202
H        2.63541719      -0.76228081       3.78320400
H        1.23429116       0.66382923       2.34930070
H        1.01701549      -6.67385777       5.84000199
H        4.32329007      -8.03010226       6.22642913
H        2.63235143      -6.19433012       8.27754176
H        1.67401982      -6.06244143      10.53012886
H        0.17048800      -7.85302663      11.36140901
H       -0.37013664      -9.77833301       9.91809651
