113
Properties=species:S:1:pos:R:3 pbc="F F F"
C        0.00000000       0.00000000       0.00000000
C        0.88261206       0.88261206      -0.88261206
C        1.90391633       1.63019826      -0.30451279
C        2.70821895       2.43170918      -1.11137453
C        2.48700579       2.48102771      -2.49122380
C        1.45515972       1.73415655      -3.08234293
C        0.65215854       0.93386429      -2.25905968
C        1.20934880       1.81205497      -4.52379000
N        1.30869033       2.98581582      -5.22466604
H        1.54643171       3.90145457      -4.85919717
N        1.04456455       2.88449411      -6.53274549
C        0.71784269       1.59383449      -6.70911899
C        0.32026299       1.11267536      -8.03330897
C        1.02388959       1.53650535      -9.17171909
C        0.64695828       1.10513484     -10.44606986
C       -0.44297770       0.24982646     -10.59622135
C       -1.15290015      -0.16483099      -9.47066245
Br      -2.64320676      -1.31083944      -9.67567424
C       -0.78169590       0.26271106      -8.19434674
C        0.83787554       0.87943111      -5.47826542
Cl       0.61626736      -0.79688535      -5.26030040
H        2.08306229       1.59354528       0.76723731
H        3.51196935       3.01530702      -0.66776159
H        3.14723612       3.10017575      -3.09566206
H       -0.16503337       0.35611318      -2.68139189
H        1.87013068       2.21338318      -9.06743067
H        1.20040137       1.44234851     -11.31845666
H       -0.73484730      -0.07957376     -11.58981836
H       -1.36525443      -0.05245918      -7.33389348
C       -0.88261206      -0.88261206      -0.88261206
C       -2.08839245      -0.38413496      -1.36609997
C       -2.88954211      -1.18963585      -2.17212470
C       -2.48059079      -2.48845500      -2.49021151
C       -1.26794369      -3.00153817      -2.00217734
C       -0.47275022      -2.18162483      -1.19070746
C       -0.85845462      -4.37233972      -2.31439944
N       -1.74803099      -5.41429092      -2.35685029
H       -2.74653511      -5.37717668      -2.18337166
N       -1.20854179      -6.60352010      -2.64974227
C        0.10533985      -6.35382320      -2.77231282
C        1.03619701      -7.44784401      -3.05460031
C        0.69613902      -8.42933342      -3.99891962
C        1.56175865      -9.49276025      -4.26716138
C        2.77490444      -9.58973287      -3.58824167
C        3.11267887      -8.62479766      -2.64081252
Br       4.75059577      -8.76609903      -1.70612479
C        2.25210995      -7.55969781      -2.36777403
C        0.36328420      -4.95982999      -2.59902628
Cl       1.87307378      -4.18586990      -2.76688629
H       -2.41029233       0.62600077      -1.12507870
H       -3.83125166      -0.80556779      -2.55821851
H       -3.11935296      -3.08362734      -3.14009362
H        0.46324220      -2.55268126      -0.78303264
H       -0.25381528      -8.36980891      -4.52732034
H        1.28473333     -10.24584171      -5.00009816
H        3.44291101     -10.42098450      -3.79732381
H        2.52431506      -6.83362854      -1.60686639
C       -0.88261206       0.88261206       0.88261206
C       -2.01506594       0.34081973       1.48274172
C       -2.81620147       1.14664694       2.28845425
C       -2.48051147       2.48910243       2.48964340
C       -1.34256515       3.04556398       1.88353007
C       -0.54669335       2.22460955       1.07377960
C       -1.01185314       4.45927818       2.07406246
N       -1.96854814       5.44020814       2.11041591
H       -2.97119062       5.32459370       2.01129913
N       -1.49681358       6.68047233       2.28451825
C       -0.16325874       6.52796452       2.32957291
C        0.70405683       7.69871559       2.47158855
C        0.35848238       8.72016823       3.37042818
C        1.16211497       9.85513732       3.50514063
C        2.31749570       9.98391132       2.73665449
C        2.65941256       8.97856119       1.83378268
Br       4.21740100       9.16146477       0.77756428
C        1.86060713       7.84192112       1.69404790
C        0.18117176       5.14539431       2.23134952
Cl       1.75002869       4.48735140       2.34235970
H       -2.27954689      -0.70305575       1.33287912
H       -3.70045225       0.72932940       2.76525631
H       -3.11543230       3.08527336       3.14236826
H        0.33136002       2.62706140       0.57677032
H       -0.54762142       8.63543392       3.96788918
H        0.88148982      10.63840832       4.20428804
H        2.93705014      10.87047030       2.84197714
H        2.13265423       7.08322286       0.96561125
C        0.88261206      -0.88261206       0.88261206
C        2.26616607      -0.74532916       0.82713215
C        3.06795279      -1.54912934       1.63422053
C        2.48203363      -2.48517324       2.49205043
C        1.08693268      -2.63425285       2.55047367
C        0.29223026      -1.82106825       1.73178400
C        0.47993109      -3.63617232       3.42909037
N        1.02546027      -4.88000755       3.61370438
H        1.86813481      -5.25067294       3.18827570
N        0.34153907      -5.67724413       4.44302096
C       -0.72865912      -4.94889221       4.80056308
C       -1.74296956      -5.52259163       5.68662523
C       -1.35017406      -6.28275596       6.79953213
C       -2.30316864      -6.85610381       7.64522781
C       -3.66054196      -6.68081474       7.38279733
C       -4.05666067      -5.93711898       6.27247300
Br      -5.89846693      -5.71439603       5.90569894
C       -3.10949298      -5.36168472       5.42317014
C       -0.66433005      -3.65025353       4.20964859
Cl      -1.75928084      -2.36953074       4.46943251
H        2.72759477      -0.01708479       0.16469070
H        4.15021321      -1.44443115       1.60039361
H        3.13599459      -3.08198242       3.12509692
H       -0.78932792      -1.92169703       1.74010259
H       -0.29265907      -6.43556363       7.00803997
H       -1.98432405      -7.44301114       8.50251945
H       -4.39795032      -7.13224219       8.04110543
H       -3.44102013      -4.80792474       4.54927526
