182
Properties=species:S:1:pos:R:3 pbc="F F F"
C        1.79144708       1.79144708      -1.79144708
C        1.63856502       1.75813788      -3.17450855
C        2.44827403       2.56061280      -3.98211246
C        3.41384420       3.41313214      -3.41384916
C        3.55619212       3.42249367      -2.01567296
C        2.74782048       2.61796792      -1.20830423
C        4.33616431       4.28022736      -4.26446087
H        4.71345338       5.14112609      -3.69893449
N        3.71217852       4.76575995      -5.48635459
C        2.67986162       5.67585421      -5.61743083
S        2.14534068       6.51224346      -4.21559918
C        0.98187413       7.34232106      -5.15551383
C        1.06029805       6.93044998      -6.47045741
C        0.20078841       7.37659687      -7.59526739
N        2.04749403       5.99310197      -6.72117130
C        4.29682887       4.20289877      -6.62669286
O        4.02941595       4.31739293      -7.80931345
C        5.44160008       3.39787157      -6.14960019
O        6.33494913       2.74027918      -6.94883797
C        7.34384754       2.06597596      -6.29517718
C        8.22620157       1.32622054      -7.08037572
C        9.27040847       0.62364673      -6.47301671
C        9.42882641       0.66847113      -5.08523072
Br      10.84474406      -0.28754768      -4.27584242
C        8.55431424       1.40828030      -4.29118150
C        7.50920963       2.10472694      -4.90259712
C        6.56264382       2.89664154      -4.08562213
O        6.70226454       3.06055599      -2.88476227
C        5.45998067       3.49780399      -4.82477006
H        0.89565866       1.11162258      -3.63518402
H        2.30738325       2.51101789      -5.06076884
H        4.31334247       4.04656637      -1.54213807
H        2.87923709       2.63883187      -0.12946904
H        0.30784585       8.06270982      -4.71410616
H       -0.64673672       6.69380879      -7.71145515
H        0.76478085       7.38923944      -8.53288421
H       -0.18915809       8.38413042      -7.41932779
H        8.10331149       1.29313231      -8.16047618
H        9.95501410       0.04490254      -7.08929887
H        8.67758893       1.44355839      -3.21132581
C       -1.79144708      -1.79144708      -1.79144708
C       -1.23657180      -2.44920432      -2.88543533
C       -2.04355983      -3.25189886      -3.69554059
C       -3.41351319      -3.41325194      -3.41406036
C       -3.95301074      -2.73164083      -2.30970719
C       -3.14612028      -1.92694453      -1.50102783
C       -4.33162776      -4.25627571      -4.29294907
H       -5.21344444      -4.60105325      -3.73901628
N       -3.67148882      -5.41293939      -4.87986485
C       -3.19167325      -6.54087711      -4.24059630
S       -3.54982042      -6.74965955      -2.57370336
C       -2.68263594      -8.22414701      -2.57292606
C       -2.16598771      -8.46541987      -3.82979786
C       -1.31987243      -9.61439688      -4.23838338
N       -2.48183766      -7.50484440      -4.77508524
C       -3.55964080      -5.29660668      -6.27017303
O       -3.03721665      -6.01911821      -7.09978748
C       -4.28500216      -4.06278549      -6.64128419
O       -4.48863320      -3.61758591      -7.91784717
C       -5.21361365      -2.45166051      -8.03972652
C       -5.37422119      -1.93463366      -9.32394299
C       -6.10181394      -0.75601729      -9.50924068
C       -6.66804723      -0.10404023      -8.41044079
Br      -7.64887483       1.49036789      -8.67453187
C       -6.51664762      -0.61468116      -7.12244727
C       -5.78426193      -1.79032609      -6.94194567
C       -5.60363874      -2.35531823      -5.58595052
O       -6.15363150      -1.89488026      -4.59907103
C       -4.74106542      -3.52765299      -5.51383631
H       -0.17990526      -2.34377178      -3.11878823
H       -1.58179724      -3.75161593      -4.54575681
H       -5.01501365      -2.80814217      -2.07889109
H       -3.58672939      -1.40597604      -0.65483255
H       -2.58464851      -8.82207243      -1.67794088
H       -0.26163727      -9.35040691      -4.14648304
H       -1.51746588      -9.89093108      -5.27850753
H       -1.51292651     -10.49034762      -3.61102599
H       -4.93469766      -2.44344193     -10.17878040
H       -6.22211395      -0.35413987     -10.51296169
H       -6.95743283      -0.10770011      -6.26734019
C       -1.79144708       1.79144708       1.79144708
C       -2.39412932       2.92447943       1.25260270
C       -3.19672698       3.73443661       2.05983570
C       -3.41323440       3.41405095       3.41354014
C       -2.78654421       2.27036259       3.93745195
C       -1.98190381       1.46175913       3.13042970
C       -4.25761921       4.29045278       4.33278054
H       -4.64978294       3.72000413       5.18372689
N       -5.37163996       4.93721048       3.65544261
C       -6.50300727       4.35228670       3.11785269
S       -6.77795663       2.68258751       3.41263919
C       -8.22163069       2.75975484       2.49832349
C       -8.40426547       4.04021327       2.01672669
C       -9.51015433       4.51463935       1.14785900
N       -7.42457783       4.94180251       2.39538696
C       -5.20635198       6.32571615       3.59435238
O       -5.88342749       7.19578940       3.07690544
C       -3.98623082       6.63120672       4.37163430
O       -3.50677417       7.88472933       4.63256278
C       -2.36258460       7.94356209       5.39885399
C       -1.80968061       9.20371200       5.61940522
C       -0.65083504       9.32538064       6.39085622
C       -0.05446613       8.18736651       6.94069562
Br       1.51375008       8.36547903       7.98130986
C       -0.60142456       6.92292841       6.72942307
C       -1.75698416       6.80610669       5.95344284
C       -2.35946583       5.47652546       5.70891621
O       -1.95023040       4.45729146       6.24006094
C       -3.50379983       5.47210368       4.80665121
H       -2.24560506       3.18846372       0.20839649
H       -3.65262533       4.61560528       1.61093937
H       -2.90626620       2.00776362       4.98801710
H       -1.50393362       0.58458042       3.55902394
H       -8.84476782       1.88909300       2.35080100
H       -9.21379518       4.44843688       0.09629516
H       -9.75914091       5.55649698       1.37126660
H      -10.41209423       3.91119249       1.29101340
H       -2.27525885      10.08907825       5.19258288
H       -0.22073809      10.31053691       6.55794051
H       -0.13772284       6.03731323       7.15743706
C        1.79144708      -1.79144708       1.79144708
C        2.72541371      -2.64070408       1.20509366
C        3.52883672      -3.45139535       2.01076721
C        3.41336439      -3.41408482       3.41337629
C        2.45676456      -2.55565553       3.98193866
C        1.65165867      -1.74668283       3.17575114
C        4.25126565      -4.30615875       4.32342814
H        4.33928178      -3.88270844       5.33152374
N        5.58865004      -4.56472779       3.81091523
C        6.63584574      -3.67445383       3.66284708
S        6.46343445      -2.09477246       4.31497643
C        8.02967007      -1.69399705       3.75604189
C        8.58514818      -2.77463603       3.10142123
C        9.91071845      -2.82624656       2.43568767
N        7.78449255      -3.90345115       3.07382359
C        5.75869423      -5.90869939       3.45902688
O        6.69984324      -6.49773620       2.95854289
C        4.51873621      -6.60286371       3.86747192
O        4.29830694      -7.94913241       3.77662692
C        3.07668751      -8.39098786       4.23732531
C        2.79498969      -9.74790912       4.08989903
C        1.57274524     -10.25371504       4.54061162
C        0.64165237      -9.40104103       5.13983486
Br      -1.00866843     -10.09763217       5.74407506
C        0.91497840      -8.04323241       5.29556523
C        2.13602156      -7.54163219       4.83887994
C        2.45369191      -6.10372908       4.98748651
O        1.73205114      -5.32587680       5.58965486
C        3.71291138      -5.68284111       4.38680223
H        2.83600023      -2.68218752       0.12427752
H        4.24843630      -4.10742290       1.52331079
H        2.31778673      -2.52225295       5.06200724
H        0.91560773      -1.09390331       3.63802695
H        8.45392983      -0.71316649       3.91756550
H        9.80598653      -2.57761229       1.37492840
H       10.34532461      -3.82741130       2.51416860
H       10.60894973      -2.11584970       2.88950069
H        3.52073520     -10.41120319       3.62498159
H        1.35555971     -11.31291089       4.42074491
H        0.19075060      -7.37962658       5.76209595
C       -0.00445707       0.01189536      -1.78238275
H       -0.66409135       0.67374010      -2.43557963
H        0.65740317      -0.63156657      -2.45157240
C       -0.90989263      -0.90692880      -0.91072765
C        0.90977584       0.90977584      -0.90977584
C       -0.00465871       1.77757030       0.00794375
H       -0.66225468       2.44313916      -0.64384735
H        0.64322798       2.43503045       0.67728295
C       -1.78241447       0.00034974      -0.00472694
H       -2.45427497      -0.65498947       0.64260836
H       -2.43311707       0.67328779      -0.65473579
C       -0.91132561       0.90220522       0.91563759
C       -0.01476271      -0.02253852       1.78660255
H       -0.67934791      -0.69751639       2.42135241
H        0.63392994       0.61504881       2.47327442
C        0.01484550      -1.77751727      -0.01636693
H        0.67870853      -2.42144646      -0.68295456
H       -0.62264859      -2.45592969       0.64226336
C        1.78714474       0.01002794       0.00389507
H        2.44202412       0.67113390       0.66197326
H        2.45385902      -0.65136977      -0.64189061
C        0.91606151      -0.90478549       0.90901405
