178
Properties=species:S:1:pos:R:3 pbc="F F F"
C        1.79191073       1.79191073      -1.79191073
C        1.57769656       3.16656076      -1.82613609
C        2.37648359       3.96675873      -2.64065232
C        3.38548627       3.39227718      -3.41875708
C        3.61981553       2.00579117      -3.38493912
C        2.80073201       1.21180637      -2.56177441
C        4.68202182       1.32916526      -4.24166441
H        5.03545814       0.40344579      -3.76972147
N        5.84627339       2.16141393      -4.52112973
C        6.77971795       2.49242991      -3.55673469
N        6.67043184       2.11869645      -2.29993953
C        7.74813010       2.58343189      -1.57230399
C        8.68675892       3.28717060      -2.29191180
S        8.18657815       3.39358542      -3.92466253
C        5.94167432       2.48544291      -5.87466701
O        6.72734607       3.19370095      -6.47771565
C        4.86455528       1.74014152      -6.55672265
O        4.67258556       1.70136984      -7.90895365
C        3.65891323       0.87924650      -8.34862382
C        3.41672564       0.85019276      -9.72130749
C        2.41168839       0.02345297     -10.22894573
C        1.65647174      -0.77034169      -9.36157786
C        1.89063056      -0.74788717      -7.98722368
C        2.89411295       0.08261174      -7.48351665
C        3.17415208       0.12057215      -6.03006752
O        2.60858697      -0.61194267      -5.23320852
C        4.20387590       1.06663181      -5.61941000
H        0.79356521       3.62136739      -1.22694481
H        2.21347032       5.04151831      -2.67050803
H        3.98878542       4.04739210      -4.04403909
H        2.94282718       0.13235194      -2.53365966
H        7.80273226       2.37370662      -0.51089430
H        9.60944685       3.73213839      -1.94866559
H        4.00815108       1.46525822     -10.39522043
H        2.22685119       0.00266652     -11.30075795
H        1.30359091      -1.36814200      -7.31310315
C        0.62644468      -1.62340239      -9.89536780
C       -0.23620298      -2.33784073     -10.34241687
Br      -1.63103129      -3.49302710     -11.06525741
C       -1.79191073      -1.79191073      -1.79191073
C       -3.15933083      -1.86671633      -1.54434625
C       -3.95913468      -2.68125865      -2.34350132
C       -3.39144108      -3.41890986      -3.38616959
C       -2.01269817      -3.34370506      -3.65414260
C       -1.21879930      -2.52118652      -2.83432698
C       -1.34232444      -4.15597727      -4.75454978
H       -0.43805933      -3.65176529      -5.11880079
N       -2.19690508      -4.42749732      -5.90441465
C       -2.57575211      -3.44887288      -6.80425756
N       -2.23087518      -2.18603313      -6.67215951
C       -2.74113585      -1.44383875      -7.71889138
C       -3.45050058      -2.15756430      -8.65777644
S       -3.50320456      -3.80450048      -8.19712106
C       -2.48933491      -5.78608980      -6.02635954
O       -3.20220805      -6.38727064      -6.80928398
C       -1.69984257      -6.47552512      -4.98605175
O       -1.62236870      -7.83069376      -4.82984658
C       -0.76378998      -8.27434319      -3.84865039
C       -0.69422890      -9.65145597      -3.64254103
C        0.17044107     -10.16269563      -2.67183253
C        0.96140728      -9.29441053      -1.91470466
C        0.89860529      -7.91565982      -2.11291254
C        0.03031677      -7.40848410      -3.08207400
C       -0.05113489      -5.94993978      -3.32371708
O        0.67549066      -5.14894843      -2.75639505
C       -1.03325672      -5.53806093      -4.31860006
H       -3.60871942      -1.29917366      -0.73398432
H       -5.02827876      -2.74272801      -2.15448989
H       -4.04597321      -4.04550637      -3.98873703
H       -0.14438350      -2.46185956      -3.00259572
H       -2.55947962      -0.37636735      -7.75148621
H       -3.92742225      -1.80288100      -9.55994759
H       -1.30721707     -10.32592214      -4.23549052
H        0.22274809     -11.23790820      -2.51511555
H        1.51666186      -7.24074349      -1.52447043
C        1.85367580      -9.83173496      -0.92035093
C        2.60095069     -10.28174417      -0.08757968
Br       3.80923099     -11.00937100       1.25894099
C       -1.79191073       1.79191073       1.79191073
C       -3.12894509       1.98428235       1.45716597
C       -3.92768827       2.79879411       2.25741225
C       -3.38916441       3.41913206       3.38822407
C       -2.04239885       3.22412507       3.74402190
C       -1.24855358       2.40353335       2.92222587
C       -1.40085264       3.90715667       4.94484218
H       -0.56273241       3.31373724       5.33215575
N       -2.31729541       4.16135844       6.05016319
C       -2.82788014       3.15385380       6.84714862
N       -2.56178851       1.88107268       6.64620664
C       -3.19771282       1.10839928       7.59775388
C       -3.92371987       1.80633079       8.53579067
S       -3.82898049       3.48041535       8.19543027
C       -2.52387809       5.52623045       6.25167570
O       -3.24959714       6.12316705       7.02599848
C       -1.61424531       6.22536093       5.32181321
O       -1.43251388       7.57863571       5.27175946
C       -0.47539975       8.02407185       4.38731195
C       -0.29634919       9.40319220       4.28868451
C        0.67069553       9.91470369       3.42007894
C        1.45385091       9.04448753       2.65707128
C        1.28199566       7.66378164       2.74818109
C        0.31174428       7.15668679       3.61529883
C        0.11264517       5.69498600       3.74245091
O        0.82240164       4.88342703       3.16882743
C       -0.96620933       5.28933725       4.63437113
H       -3.55522547       1.50848980       0.57816214
H       -4.97320580       2.95185680       2.00043407
H       -4.04178042       4.04944181       3.98899438
H       -0.19611288       2.25363838       3.15908751
H       -3.09274149       0.03072144       7.56387024
H       -4.48917608       1.42666562       9.37440913
H       -0.90363366      10.07872193       4.88627414
H        0.80818863      10.99134253       3.34712175
H        1.89395905       6.98712020       2.15539091
C        2.45189130       9.58153844       1.76876294
C        3.28775012      10.03131857       1.02480471
Br       4.63926315      10.75857501      -0.17811283
C        1.79191073      -1.79191073       1.79191073
C        1.98648343      -3.12824882       1.45566117
C        2.78218654      -3.93294182       2.26876628
C        3.38007472      -3.40151959       3.41492622
C        3.20066648      -2.04981961       3.76005974
C        2.38981975      -1.25289166       2.93160138
C        3.80074198      -1.43451528       5.01759424
H        3.96406748      -0.35701051       4.88754741
N        5.06468881      -2.03154084       5.43258741
C        6.24401516      -1.85035544       4.73451196
N        6.31254549      -1.15996070       3.61656164
C        7.61248890      -1.14024477       3.15113231
C        8.53120090      -1.79641133       3.93822910
S        7.73410391      -2.48339197       5.28733022
C        4.94722484      -2.70703755       6.64752185
O        5.75087870      -3.36736479       7.28051917
C        3.57601555      -2.45232470       7.13307919
O        3.08557225      -2.85382494       8.34351186
C        1.80482027      -2.44276370       8.63919958
C        1.26595531      -2.87043809       9.85183249
C       -0.02321882      -2.47301239      10.21429353
C       -0.76477499      -1.64915742       9.36332548
C       -0.23493449      -1.21664090       8.14826067
C        1.05301731      -1.61905706       7.78816697
C        1.64764461      -1.16766862       6.50947852
O        1.08473145      -0.37925690       5.76586447
C        2.97307356      -1.69892349       6.21792067
H        1.52306138      -3.55061597       0.56820005
H        2.93778004      -4.97765876       2.01005786
H        3.99362001      -4.05943878       4.02715782
H        2.21300973      -0.20896513       3.18686392
H        7.83794197      -0.62304815       2.22634305
H        9.59574310      -1.90501490       3.78949284
H        1.84595086      -3.50794332      10.51473554
H       -0.43944930      -2.80776539      11.16195957
H       -0.81231963      -0.57327299       7.48759871
C       -2.09069433      -1.24043882       9.74866559
C       -3.20115178      -0.89813700      10.07138794
Br      -4.99666755      -0.34466390      10.59320268
C       -0.00445707       0.01189536      -1.78238275
H       -0.66409135       0.67374010      -2.43557963
H        0.65740317      -0.63156657      -2.45157240
C       -0.90989263      -0.90692880      -0.91072765
C        0.90977584       0.90977584      -0.90977584
C       -0.00465871       1.77757030       0.00794375
H       -0.66225468       2.44313916      -0.64384735
H        0.64322798       2.43503045       0.67728295
C       -1.78241447       0.00034974      -0.00472694
H       -2.45427497      -0.65498947       0.64260836
H       -2.43311707       0.67328779      -0.65473579
C       -0.91132561       0.90220522       0.91563759
C       -0.01476271      -0.02253852       1.78660255
H       -0.67934791      -0.69751639       2.42135241
H        0.63392994       0.61504881       2.47327442
C        0.01484550      -1.77751727      -0.01636693
H        0.67870853      -2.42144646      -0.68295456
H       -0.62264859      -2.45592969       0.64226336
C        1.78714474       0.01002794       0.00389507
H        2.44202412       0.67113390       0.66197326
H        2.45385902      -0.65136977      -0.64189061
C        0.91606151      -0.90478549       0.90901405
