157
Properties=species:S:1:pos:R:3 pbc="F F F"
C        0.00000000       0.00000000       0.00000000
C        0.88200671       0.88200671      -0.88200671
C        0.66779254       2.25665674      -0.91623206
C        1.46657957       3.05685470      -1.73074829
C        2.47558225       2.48237316      -2.50885305
C        2.70991151       1.09588715      -2.47503510
C        1.89082798       0.30190235      -1.65187039
C        3.77211779       0.41926124      -3.33176039
H        4.12555412      -0.50645824      -2.85981745
N        4.93636937       1.25150990      -3.61122571
C        5.86981393       1.58252589      -2.64683066
N        5.76052782       1.20879242      -1.39003551
C        6.83822608       1.67352787      -0.66239996
C        7.77685490       2.37726657      -1.38200778
S        7.27667413       2.48368139      -3.01475851
C        5.03177030       1.57553888      -4.96476299
O        5.81744204       2.28379692      -5.56781163
C        3.95465125       0.83023749      -5.64681862
O        3.76268153       0.79146581      -6.99904963
C        2.74900921      -0.03065752      -7.43871980
C        2.50682162      -0.05971126      -8.81140347
C        1.50178437      -0.88645106      -9.31904171
C        0.74656771      -1.68024571      -8.45167383
C        0.98072654      -1.65779119      -7.07731965
C        1.98420892      -0.82729229      -6.57361263
C        2.26424806      -0.78933188      -5.12016349
O        1.69868294      -1.52184670      -4.32330450
C        3.29397188       0.15672778      -4.70950598
H       -0.11633881       2.71146336      -0.31704078
H        1.30356629       4.13161429      -1.76060401
H        3.07888139       3.13748808      -3.13413507
H        2.03292316      -0.77755209      -1.62375564
H        6.89282823       1.46380259       0.39900972
H        8.69954282       2.82223437      -1.03876157
H        3.09824705       0.55535420      -9.48531640
H        1.31694717      -0.90723751     -10.39085392
H        0.39368689      -2.27804602      -6.40319913
C       -0.28345934      -2.53330642      -8.98546377
C       -1.14610701      -3.24774475      -9.43251285
Br      -2.54093531      -4.40293112     -10.15535339
C       -0.88200671      -0.88200671      -0.88200671
C       -0.67203262      -2.25742632      -0.91122240
C       -1.47077454      -3.05767400      -1.72573402
C       -2.47549887      -2.48247827      -2.50883132
C       -2.70554914      -1.09516069      -2.48012392
C       -1.88655782      -0.30116274      -1.65688016
C       -3.76290585      -0.41790250      -3.34233106
H       -4.11489939       0.51041358      -2.87442751
N       -4.92889618      -1.24735732      -3.62285148
C       -5.86641713      -1.57237949      -2.66037386
N       -5.75991129      -1.19502093      -1.40442352
C       -6.84136112      -1.65405512      -0.67873767
C       -7.77993759      -2.35710375      -1.39908791
S       -7.27495272      -2.47025556      -3.02990574
C       -5.02105496      -1.57536148      -4.97565572
O       -5.80705750      -2.28304295      -5.57895015
C       -3.93944101      -0.83561823      -5.65664813
O       -3.74308917      -0.80172684      -7.00838096
C       -2.72544230       0.01580382      -7.44743299
C       -2.47883936       0.03975444      -8.81942890
C       -1.46959869       0.86171385      -9.32649018
C       -0.71461351       1.65586268      -8.45924500
C       -0.95317217       1.63849118      -7.08557401
C       -1.96085749       0.81275537      -6.58242715
C       -2.24559428       0.78027278      -5.12975818
O       -1.68023028       1.51351715      -4.33342762
C       -3.27959286      -0.16123410      -4.71937868
H        0.10876479      -2.71280527      -0.30812485
H       -1.31106654      -4.13303099      -1.75168706
H       -3.07889254      -3.13766217      -3.13394982
H       -2.02532760       0.77881763      -1.63261673
H       -6.89864466      -1.44080432       0.38182789
H       -8.70510476      -2.79807419      -1.05735981
H       -3.07007958      -0.57557156      -9.49326651
H       -1.28131988       0.87852917     -10.39777288
H       -0.36630194       2.25902098      -6.41155903
C        0.31978234       2.50398130      -8.99246166
C        1.18608887       3.21428065      -9.43903061
Br       2.58683326       4.36277463     -10.16109484
C       -0.88200671       0.88200671       0.88200671
C       -0.31310618       1.93407992       1.59349524
C       -1.11856982       2.72943619       2.40617656
C       -2.48858675       2.47153389       2.50668782
C       -3.07810254       1.41843271       1.78429850
C       -2.24980703       0.62170375       0.97308994
C       -4.55841099       1.07532502       1.88940340
H       -4.91546875       0.59298962       0.97045496
N       -5.42130038       2.21961316       2.15819144
C       -5.67610845       3.20270969       1.22035234
N       -5.12717671       3.20757104       0.02460800
C       -5.57103612       4.29887073      -0.69575294
C       -6.47991877       5.10384150      -0.04763101
S       -6.76313471       4.48846896       1.52351036
C       -6.01674095       2.13818047       3.41715075
O       -6.74282080       2.91224072       4.01398908
C       -5.63523044       0.82403965       3.97243727
O       -6.09441957       0.30763202       5.15114538
C       -5.67968077      -0.97146479       5.44885549
C       -6.10290713      -1.50832780       6.66393449
C       -5.72744422      -2.80738684       7.01431764
C       -4.93299883      -3.56217952       6.14717653
C       -4.50419023      -3.03400787       4.93007264
C       -4.87901068      -1.73363592       4.58515451
C       -4.44866273      -1.14847842       3.29489537
O       -3.82786285      -1.78682951       2.45910741
C       -4.85360779       0.23379943       3.07279842
H        0.75155656       2.13993304       1.52378885
H       -0.67894190       3.55309639       2.96374631
H       -3.08657666       3.11205186       3.15187601
H       -2.67396686      -0.21585543       0.42101528
H       -5.20015700       4.45846994      -1.70100583
H       -6.97221603       5.99569271      -0.40736998
H       -6.72457595      -0.92120467       7.33554637
H       -6.06094424      -3.22305338       7.96267272
H       -3.88764887      -3.62346697       4.25465809
C       -4.55599270      -4.90237186       6.51507717
C       -4.24025007      -6.02478294       6.82319396
Br      -3.72972094      -7.83962673       7.32139274
C        0.88200671      -0.88200671       0.88200671
C        0.30856744      -1.61639144       1.91572246
C        1.11764221      -2.41085602       2.72568434
C        2.49607547      -2.46891007       2.50182292
C        3.08679187      -1.74046414       1.45357773
C        2.25655849      -0.93903144       0.64901079
C        4.58754762      -1.74242035       1.19317145
H        4.80248219      -1.54042876       0.13600238
N        5.25723698      -2.98582824       1.55603976
C        5.09332473      -4.16027222       0.84557354
N        4.28729518      -4.26148754      -0.18942697
C        4.33441205      -5.54254019      -0.70279834
C        5.20147198      -6.40164169      -0.06698442
S        5.95804597      -5.58487365       1.23219441
C        6.13697125      -2.81063509       2.62446583
O        6.82352323      -3.60687635       3.23865102
C        6.15249392      -1.36304183       2.91617162
O        6.96562514      -0.75624813       3.83132371
C        6.88214134       0.61709593       3.89202607
C        7.67342774       1.25873839       4.84382447
C        7.64357161       2.65180865       4.94261206
C        6.82449935       3.39471668       4.08821316
C        6.02905668       2.76229255       3.13349087
C        6.05934031       1.36915486       3.04034382
C        5.23441960       0.66894603       2.02960611
O        4.56626564       1.26585090       1.19972601
C        5.30689049      -0.78616144       2.06715371
H       -0.76168204      -1.57486801       2.09897937
H        0.67432163      -2.98705381       3.53440916
H        3.09715308      -3.09852204       3.15482942
H        2.68905529      -0.34489995      -0.15482853
H        3.71377262      -5.79723210      -1.55338362
H        5.41744861      -7.43583413      -0.29274398
H        8.31339576       0.67943896       5.50496085
H        8.26355698       3.14866207       5.68566867
H        5.39352173       3.34189173       2.46720999
C        6.80507377       4.83067244       4.19429668
C        6.78880484       6.03328538       4.28314163
Br       6.76249935       7.97780880       4.42679640
