162
Properties=species:S:1:pos:R:3 pbc="F F F"
C        1.79145835       1.79145835      -1.79145835
C        2.97352522       2.31499652      -1.27836128
C        3.77726645       3.12524772      -2.08285380
C        3.40629120       3.42760612      -3.40892114
C        2.21930380       2.87004333      -3.91210656
C        1.41215768       2.06194698      -3.10439289
C        4.27483604       4.31486754      -4.30110828
H        3.79607330       4.52151905      -5.26595326
N        5.57204115       3.70658087      -4.50219743
C        5.75826336       2.63390217      -5.38850488
C        6.86372754       1.79198918      -5.27888649
C        7.05951761       0.78346454      -6.22336468
C        6.16361961       0.66300240      -7.27289025
Br       6.42142895      -0.63198557      -8.61575711
C        5.08048107       1.52456795      -7.30845945
N        4.84097040       2.48103466      -6.37460611
C        6.58723983       4.41160449      -3.87341786
O        7.77674847       4.15502414      -3.79472162
C        5.96965812       5.66451647      -3.36784159
C        4.66001401       5.60480177      -3.64568668
C        3.77909490       6.75821154      -3.38017550
O        4.28890442       7.83393958      -3.05877221
C        2.28719613       6.63112045      -3.52318640
O        6.67801511       6.69388920      -2.81277281
H        3.28327547       2.09617487      -0.25923806
H        4.70412481       3.50775564      -1.65841876
H        1.91524955       3.05426452      -4.94131706
H        0.49450190       1.64327861      -3.50985988
H        7.56920243       1.88686183      -4.45934870
H        7.91453091       0.11977385      -6.13182446
H        4.35546254       1.48412055      -8.11661318
H        1.93029214       5.64589031      -3.22933112
H        1.99497048       6.84970232      -4.55257732
H        1.80997126       7.35085411      -2.85022741
H        6.06073387       7.45098307      -2.70801637
C       -1.79145835      -1.79145835      -1.79145835
C       -1.20312105      -2.64448334      -2.71927864
C       -2.00937057      -3.44704034      -3.52895705
C       -3.41466319      -3.40246095      -3.42569432
C       -3.98533710      -2.54935727      -2.46675933
C       -3.17739595      -1.74225708      -1.65884453
C       -4.31054202      -4.27355597      -4.30671387
H       -5.37400359      -4.04835255      -4.16118946
N       -4.05281105      -5.67450247      -4.05350592
C       -4.54583373      -6.32406913      -2.91076755
C       -3.97331519      -7.50925632      -2.45203170
C       -4.53656339      -8.17018759      -1.35959585
C       -5.67789445      -7.64769723      -0.77392058
Br      -6.52163912      -8.53843052       0.65486915
C       -6.18172339      -6.45869223      -1.27309284
N       -5.62334883      -5.77088835      -2.30237399
C       -3.44211525      -6.30033489      -5.12981202
O       -3.04283929      -7.44761503      -5.23603991
C       -3.44795231      -5.31370117      -6.24036270
C       -3.97179056      -4.17675029      -5.76196161
C       -4.23124239      -3.03127853      -6.65496102
O       -4.11932868      -3.18962434      -7.87266318
C       -4.64908912      -1.70064545      -6.09176841
O       -3.06184505      -5.60316935      -7.51966273
H       -0.12159540      -2.69893005      -2.81816295
H       -1.51957848      -4.11575536      -4.23496536
H       -5.06550182      -2.51044327      -2.33488604
H       -3.63742851      -1.08463889      -0.92557299
H       -3.08105178      -7.92260397      -2.91175721
H       -4.08395376      -9.08766697      -0.99450848
H       -7.08259052      -6.01224078      -0.86136498
H       -4.17706998      -1.49561810      -5.13282548
H       -5.73641752      -1.66551153      -5.99532107
H       -4.32031870      -0.91313245      -6.77760163
H       -3.30562411      -4.83398074      -8.08012845
C       -1.79145835       1.79145835       1.79145835
C       -1.23595863       2.44376702       2.88715738
C       -2.04309789       3.24598043       3.69628964
C       -3.41756345       3.40136071       3.42389429
C       -3.95154588       2.75027204       2.29963577
C       -3.14350960       1.94315541       1.49183255
C       -4.31437055       4.27459204       4.30184927
H       -5.36798915       4.21165137       4.00390508
N       -3.86268583       5.64868154       4.26945208
C       -4.11951573       6.48763161       3.17352308
C       -3.35597771       7.63157431       2.94705119
C       -3.68728417       8.48516011       1.89390255
C       -4.79379291       8.19164863       1.11407071
Br      -5.32939745       9.34819509      -0.27239206
C       -5.49556422       7.03005845       1.38788580
N       -5.16379591       6.15808335       2.37473191
C       -3.33160478       6.05700942       5.48364797
O       -2.81824099       7.12044914       5.78780410
C       -3.60096695       4.95654978       6.44449946
C       -4.18614288       3.96351745       5.76084212
C       -4.69475467       2.76603205       6.45669522
O       -4.72820274       2.76412981       7.68928365
C       -5.18704801       1.57822267       5.67623231
O       -3.35739619       5.03994979       7.78733114
H       -0.17838076       2.34172636       3.11858129
H       -1.57665985       3.75604518       4.53759418
H       -5.00156943       2.87128711       2.03797458
H       -3.57572826       1.44324621       0.62866591
H       -2.49061295       7.86561659       3.55918342
H       -3.08562387       9.37062749       1.70987786
H       -6.37967083       6.75895360       0.81757186
H       -4.61886922       1.42607180       4.76057254
H       -6.24839575       1.69975648       5.44909789
H       -5.04719881       0.67898197       6.28487200
H       -3.76216470       4.24969293       8.20787568
C        1.79145835      -1.79145835       1.79145835
C        2.84891777      -2.49431854       1.22364672
C        3.65208437      -3.30441835       2.02886524
C        3.40442899      -3.42709321       3.41129626
C        2.34443376      -2.69105056       3.96596937
C        1.53731984      -1.88302270       3.15815503
C        4.27374618      -4.31174341       4.30532227
H        3.88847777      -4.36424251       5.33082533
N        5.64025750      -3.83652158       4.30404036
C        6.03300534      -2.70748954       5.04017553
C        7.19859217      -2.01117614       4.72483490
C        7.60086391      -0.94074379       5.52473914
C        6.84597516      -0.61425836       6.63927874
Br       7.38352615       0.77267847       7.79435280
C        5.69210817      -1.34001720       6.88138310
N        5.25309360      -2.35298331       6.09053427
C        6.50134006      -4.71165375       3.65926836
O        7.69419982      -4.60025633       3.43203808
C        5.70693351      -5.93158785       3.36349483
C        4.44984105      -5.69661800       3.76404340
C        3.43231439      -6.76416462       3.72100293
O        3.79099298      -7.91754262       3.47308060
C        1.98668279      -6.45568650       3.99913369
O        6.24018797      -7.08522247       2.85926668
H        3.06223542      -2.41621376       0.16023923
H        4.48157813      -3.83009657       1.55862451
H        2.14138939      -2.73457612       5.03486562
H        0.71844431      -1.32456210       3.60463397
H        7.79380779      -2.26758162       3.85402354
H        8.50288418      -0.39049523       5.27274980
H        5.07077734      -1.13635501       7.74906393
H        1.70053848      -5.47133677       3.63363830
H        1.79187013      -6.53449201       5.07088798
H        1.36612604      -7.18140331       3.46352343
H        5.54153593      -7.77450690       2.90369047
C       -0.00445707       0.01189536      -1.78238275
H       -0.66409135       0.67374010      -2.43557963
H        0.65740317      -0.63156657      -2.45157240
C       -0.90989263      -0.90692880      -0.91072765
C        0.90977584       0.90977584      -0.90977584
C       -0.00465871       1.77757030       0.00794375
H       -0.66225468       2.44313916      -0.64384735
H        0.64322798       2.43503045       0.67728295
C       -1.78241447       0.00034974      -0.00472694
H       -2.45427497      -0.65498947       0.64260836
H       -2.43311707       0.67328779      -0.65473579
C       -0.91132561       0.90220522       0.91563759
C       -0.01476271      -0.02253852       1.78660255
H       -0.67934791      -0.69751639       2.42135241
H        0.63392994       0.61504881       2.47327442
C        0.01484550      -1.77751727      -0.01636693
H        0.67870853      -2.42144646      -0.68295456
H       -0.62264859      -2.45592969       0.64226336
C        1.78714474       0.01002794       0.00389507
H        2.44202412       0.67113390       0.66197326
H        2.45385902      -0.65136977      -0.64189061
C        0.91606151      -0.90478549       0.90901405
