149
Properties=species:S:1:pos:R:3 pbc="F F F"
C        0.00000000       0.00000000       0.00000000
C        0.88155433       0.88155433      -0.88155433
C        2.06362120       1.40509250      -0.36845726
C        2.86736242       2.21534369      -1.17294977
C        2.49638718       2.51770209      -2.49901712
C        1.30939977       1.96013930      -3.00220254
C        0.50225366       1.15204296      -2.19448887
C        3.36493201       3.40496351      -3.39120426
H        2.88616927       3.61161502      -4.35604924
N        4.66213712       2.79667685      -3.59229340
C        4.84835934       1.72399815      -4.47860086
C        5.95382351       0.88208516      -4.36898246
C        6.14961359      -0.12643949      -5.31346066
C        5.25371558      -0.24690162      -6.36298622
C        4.17057705       0.61466392      -6.39855542
N        3.93106638       1.57113064      -5.46470208
C        5.67733580       3.50170046      -2.96351383
O        6.86684444       3.24512012      -2.88481759
C        5.05975410       4.75461245      -2.45793757
C        3.75010999       4.69489774      -2.73578265
C        2.86919088       5.84830751      -2.47027148
O        3.37900039       6.92403555      -2.14886818
C        1.37729211       5.72121643      -2.61328238
O        5.76811109       5.78398518      -1.90286879
H        2.37337145       1.18627085       0.65066596
H        3.79422078       2.59785161      -0.74851474
H        1.00534552       2.14436049      -4.03141304
H       -0.41540212       0.73337458      -2.59995585
H        6.65929840       0.97695781      -3.54944467
H        7.00462689      -0.79013018      -5.22192043
H        3.44555852       0.57421653      -7.20670916
H        1.02038811       4.73598628      -2.31942709
H        1.08506646       5.93979829      -3.64267330
H        0.90006724       6.44095008      -1.94032339
H        5.15082984       6.54107904      -1.79811234
C        5.45084244      -1.23707873      -7.38977261
C        5.61593618      -2.06635206      -8.24970622
Br       5.88287879      -3.40721690      -9.64014612
C       -0.88155433      -0.88155433      -0.88155433
C       -0.49195028      -1.15719189      -2.18802879
C       -1.30051815      -1.95926218      -2.99587556
C       -2.51230439      -2.49102915      -2.50977285
C       -2.87431718      -2.21685712      -1.18056731
C       -2.06616016      -1.40965077      -0.37297456
C       -3.40910047      -3.36903856      -3.38296076
H       -4.35154405      -3.62065876      -2.88163073
N       -2.70723350      -4.57335131      -3.77052256
C       -2.52573177      -5.64419906      -2.88102752
C       -1.52470011      -6.59171431      -3.08847671
C       -1.42154393      -7.68621708      -2.22887375
C       -2.34242159      -7.82400352      -1.20337508
C       -3.29951678      -6.83569235      -1.04858726
N       -3.38977847      -5.73634452      -1.84077611
C       -2.41638871      -4.60000266      -5.12615873
O       -1.79681382      -5.42918530      -5.77078303
C       -3.11614207      -3.43332885      -5.72283319
C       -3.69893201      -2.76146605      -4.72039232
C       -4.58100624      -1.61120611      -4.99555752
O       -4.91051744      -1.38028456      -6.16110213
C       -5.08957429      -0.75029345      -3.87192317
O       -3.19233161      -3.19550992      -7.06712353
H        0.43855912      -0.76048633      -2.58704913
H       -0.96163500      -2.17003273      -4.00891940
H       -3.78669581      -2.63560730      -0.75881594
H       -2.36526595      -1.20449248       0.65183011
H       -0.80418917      -6.48779987      -3.89371184
H       -0.63446689      -8.41875110      -2.38319916
H       -4.05507429      -6.90082694      -0.27058298
H       -4.35752082      -0.64470492      -3.07357574
H       -6.02095335      -1.16562491      -3.48095979
H       -5.27640399       0.25591776      -4.26085448
H       -3.83085820      -2.46053304      -7.19862999
C       -2.30608065      -8.96795447      -0.32950120
C       -2.27564512      -9.92601339       0.40236817
Br      -2.22643343     -11.47511364       1.58573905
C       -0.88155433       0.88155433       0.88155433
C       -0.48901896       1.16203221       2.18611979
C       -1.29757032       1.96410048       2.99398508
C       -2.51225081       2.49102209       2.50983348
C       -2.87726410       2.21202340       1.18245412
C       -2.06910818       1.40481865       0.37485866
C       -3.40906048       3.36896420       3.38307510
H       -4.35364351       3.61646513       2.88372489
N       -2.70953585       4.57637396       3.76519756
C       -2.53362910       5.64518876       2.87214048
C       -1.53472166       6.59614081       3.07402866
C       -1.43714224       7.68847265       2.21101987
C       -2.36132759       7.82070462       1.18776798
C       -3.31603234       6.82923262       1.03853144
N       -3.40089558       5.73189989       1.83410363
C       -2.41490752       4.60772676       5.11991582
O       -1.79587022       5.44050944       5.76040249
C       -3.10962212       3.44077364       5.72190835
C       -3.69334363       2.76439201       4.72305474
C       -4.57134046       1.61241466       5.00401475
O       -4.89686873       1.38388624       6.17114916
C       -5.08064582       0.74684992       3.88429518
O       -3.18130187       3.20658025       7.06708293
H        0.44375302       0.76912079       2.58360856
H       -0.95640607       2.17872905       4.00545201
H       -3.79203320       2.62696595       0.76211990
H       -2.37054494       1.19588202      -0.64849865
H       -0.81162568       6.49658044       3.87749476
H       -0.65172482       8.42368390       2.36100842
H       -4.07398623       6.88999140       0.26250658
H       -4.35057104       0.64106688       3.08416356
H       -6.01431772       1.15840761       3.49481272
H       -5.26349121      -0.25877418       4.27662368
H       -3.81734877       2.47016599       7.20250647
C       -2.33074480       8.96225312       0.31053840
C       -2.30513172       9.91829998      -0.42414136
Br      -2.26371753      11.46414690      -1.61205641
C        0.88155433      -0.88155433       0.88155433
C        2.17305697      -1.19383307       0.47028092
C        2.97756155      -2.00408284       1.27401149
C        2.49886693      -2.51771967       2.49651978
C        1.19921922      -2.17120951       2.90131289
C        0.39201447      -1.36305359       2.09371743
C        3.36713001      -3.40778182       3.38618795
H        2.81144061      -3.79243803       4.24995489
N        4.54190736      -2.68550820       3.82369182
C        4.48306004      -1.72347612       4.84442218
C        5.47434200      -0.75268381       4.97786532
C        5.42658661       0.13968282       6.04973097
C        4.40766712       0.01799789       6.98013096
C        3.44947168      -0.95990490       6.77441982
N        3.44615310      -1.80743652       5.71330948
C        5.70612314      -3.18063087       3.25579609
O        6.85302281      -2.78057344       3.36318590
C        5.31984594      -4.41957685       2.53288132
C        3.99039330      -4.54802399       2.64237310
C        3.30413825      -5.75068906       2.13294255
O        3.98365592      -6.70924209       1.75900612
C        1.80196321      -5.81619529       2.09363241
O        6.21576057      -5.27908702       1.96011746
H        2.56698529      -0.80958943      -0.46759838
H        3.98912241      -2.21848275       0.93298198
H        0.80521948      -2.52204194       3.85385764
H       -0.61301907      -1.10950856       2.42143883
H        6.27589538      -0.65777986       4.25202564
H        6.19243086       0.90374511       6.14773139
H        2.63709159      -1.10916886       7.48022375
H        1.35575529      -4.84880064       1.87124556
H        1.42407669      -6.19952318       3.04393817
H        1.50358000      -6.49207841       1.28568230
H        5.71883835      -6.08209063       1.68909225
C        4.35413526       0.88170517       8.13110623
C        4.30930233       1.60506001       9.09504802
Br       4.23681127       2.77466362      10.65366037
