141
Properties=species:S:1:pos:R:3 pbc="F F F"
C        0.00000000       0.00000000       0.00000000
C        0.88155433       0.88155433      -0.88155433
C        2.06362120       1.40509250      -0.36845726
C        2.86736242       2.21534369      -1.17294977
C        2.49638718       2.51770209      -2.49901712
C        1.30939977       1.96013930      -3.00220254
C        0.50225366       1.15204296      -2.19448887
C        3.36493201       3.40496351      -3.39120426
H        2.88616927       3.61161502      -4.35604924
N        4.66213712       2.79667685      -3.59229340
C        4.84835934       1.72399815      -4.47860086
C        5.95382351       0.88208516      -4.36898246
C        6.14961359      -0.12643949      -5.31346066
C        5.25371558      -0.24690162      -6.36298622
Br       5.51152492      -1.54188960      -7.70585308
C        4.17057705       0.61466392      -6.39855542
N        3.93106638       1.57113064      -5.46470208
C        5.67733580       3.50170046      -2.96351383
O        6.86684444       3.24512012      -2.88481759
C        5.05975410       4.75461245      -2.45793757
C        3.75010999       4.69489774      -2.73578265
C        2.86919088       5.84830751      -2.47027148
O        3.37900039       6.92403555      -2.14886818
C        1.37729211       5.72121643      -2.61328238
O        5.76811109       5.78398518      -1.90286879
H        2.37337145       1.18627085       0.65066596
H        3.79422078       2.59785161      -0.74851474
H        1.00534552       2.14436049      -4.03141304
H       -0.41540212       0.73337458      -2.59995585
H        6.65929840       0.97695781      -3.54944467
H        7.00462689      -0.79013018      -5.22192043
H        3.44555852       0.57421653      -7.20670916
H        1.02038811       4.73598628      -2.31942709
H        1.08506646       5.93979829      -3.64267330
H        0.90006724       6.44095008      -1.94032339
H        5.15082984       6.54107904      -1.79811234
C       -0.88155433      -0.88155433      -0.88155433
C       -0.50398352      -1.13767524      -2.19551219
C       -1.31261747      -1.93975465      -3.00328377
C       -2.51251876      -2.49106098      -2.50952666
C       -2.86222178      -2.23634606      -1.17317377
C       -2.05406041      -1.42913312      -0.36559196
C       -3.40925648      -3.36934330      -3.38250001
H       -4.34288346      -3.63759343      -2.87335665
N       -2.69817836      -4.56092376      -3.79200525
C       -2.49412720      -5.63971521      -2.91711593
C       -1.48477862      -6.57312882      -3.14698370
C       -1.35913802      -7.67613759      -2.30135915
C       -2.26643202      -7.83632344      -1.26704472
Br      -2.18852952      -9.34476439      -0.14219450
C       -3.23292750      -6.86100699      -1.08986190
N       -3.34494966      -5.75377661      -1.86817283
C       -2.42277548      -4.56867275      -5.15110187
O       -1.80125433      -5.38318185      -5.81234598
C       -3.14271406      -3.40342747      -5.72616258
C       -3.72150683      -2.74988982      -4.70939373
C       -4.61982854      -1.60685173      -4.96108960
O       -4.96544704      -1.36642793      -6.12002915
C       -5.12517046      -0.76481752      -3.82180293
O       -3.23719477      -3.15112431      -7.06664597
H        0.41723445      -0.72566924      -2.60054154
H       -0.98310372      -2.13496611      -4.02251730
H       -3.76479548      -2.67044404      -0.74587954
H       -2.34360151      -1.23920698       0.66488018
H       -0.77488441      -6.45165532      -3.95916116
H       -0.56556265      -8.39768624      -2.47316825
H       -3.97862340      -6.94379996      -0.30406085
H       -4.38517274      -0.65990521      -3.03072353
H       -6.04713799      -1.19536472      -3.42503533
H       -5.32800815       0.24355036      -4.19688292
H       -3.88557950      -2.42213761      -7.18230412
C       -0.88155433       0.88155433       0.88155433
C       -0.30697565       1.61812041       1.91207490
C       -1.11375365       2.42045258       2.72144965
C       -2.50648245       2.49183542       2.51478851
C       -3.06110283       1.75605544       1.45458335
C       -2.25310355       0.94894871       0.64673324
C       -3.40298889       3.36413091       3.39397999
H       -4.46544632       3.23256458       3.15582263
N       -3.02694479       4.75555573       3.26860685
C       -3.38267495       5.52127664       2.14700676
C       -2.69318114       6.68857655       1.82313345
C       -3.12181195       7.46741376       0.74740905
C       -4.24904574       7.07770006       0.04305439
Br      -4.91424952       8.13074988      -1.36951099
C       -4.87362106       5.89841572       0.41175962
N       -4.44689101       5.09774869       1.42225939
C       -2.45783105       5.25384295       4.43087610
O       -1.98688145       6.35638300       4.65351770
C       -2.61982680       4.19368171       5.45879559
C       -3.18521985       3.13764084       4.85792970
C       -3.59401720       1.95463601       5.63911665
O       -3.56526315       2.01636239       6.87027858
C       -4.06132633       0.70388258       4.94658201
O       -2.31376754       4.36026028       6.78093723
H        0.76482504       1.58182112       2.09198025
H       -0.63326076       2.99719561       3.51013076
H       -4.12789595       1.81005643       1.24316667
H       -2.70110647       0.38289735      -0.16607551
H       -1.81173297       6.99796272       2.37600519
H       -2.57793284       8.37103405       0.48745025
H       -5.76969339       5.55333879      -0.09654797
H       -3.53267185       0.53220917       4.01092046
H       -5.13770380       0.75966053       4.77017371
H       -3.84358551      -0.15367123       5.59142642
H       -2.65442623       3.57403327       7.26156172
C        0.88155433      -0.88155433       0.88155433
C        1.86677704      -1.67167184       0.29872208
C        2.66969087      -2.48164215       1.10432286
C        2.49370759      -2.51675743       2.50264137
C        1.50698056      -1.69411112       3.07064994
C        0.69987588      -0.88612313       2.26278649
C        3.36359569      -3.40005143       3.39745267
H        3.03413716      -3.37642194       4.44327443
N        4.75116777      -3.00286245       3.29707715
C        5.24386306      -1.86015272       3.94694256
C        6.42524276      -1.24793263       3.53171574
C        6.92789777      -0.16079932       4.24793768
C        6.25500844       0.26611291       5.38090466
Br       6.92922202       1.68006691       6.42633330
C        5.07964942      -0.38000568       5.72414130
N        4.54391620      -1.40730547       5.01567743
C        5.52715077      -3.95781981       2.65757951
O        6.70963525      -3.92562730       2.36151961
C        4.65384045      -5.14530497       2.47315868
C        3.43539408      -4.81937181       2.92602449
C        2.36186833      -5.82902055       2.99688098
O        2.64441755      -7.01220313       2.79528346
C        0.95248580      -5.42572940       3.33357571
O        5.09607406      -6.35211661       2.00677438
H        2.02403196      -1.66215004      -0.77720566
H        3.44249026      -3.07716065       0.62093622
H        1.36210978      -1.66944111       4.14956817
H       -0.06192931      -0.25977502       2.72008260
H        6.95630474      -1.58310245       2.64629370
H        7.84229816       0.32391557       3.91803455
H        4.51957730      -0.09612511       6.61078180
H        0.69892765      -4.44766887       2.92920496
H        0.81411114      -5.43654375       4.41688316
H        0.26528430      -6.14292905       2.87312736
H        4.36543441      -6.99785405       2.12673277
