134
Properties=species:S:1:pos:R:3 pbc="F F F"
C        1.79134849       1.79134849      -1.79134849
C        2.02751031       3.11525656      -1.43078285
C        2.83502642       3.92264743      -2.23889866
C        3.41015240       3.41438454      -3.41354815
C        3.16441882       2.07640757      -3.75531923
C        2.35697099       1.26691316      -2.94978272
C        4.25435387       4.24799815      -4.26697056
N        4.09954922       5.60018507      -4.41408732
H        3.40135278       6.19349593      -3.98110161
N        4.97746091       6.17263694      -5.24801744
C        5.74063226       5.16018607      -5.69086150
C        5.31176876       3.93792534      -5.10096915
C        6.83472175       5.38204434      -6.64624376
C        7.11402093       6.67619889      -7.11795962
C        8.15066952       6.90470537      -8.02841611
C        8.92054528       5.83631755      -8.47729134
Br      10.32237886       6.13837447      -9.70814278
C        8.66317394       4.54499161      -8.02414138
C        7.62478377       4.31972835      -7.11259800
H        1.59516478       3.52734295      -0.52251885
H        3.02128522       4.94537954      -1.92020618
H        3.58930188       1.65026525      -4.66126148
H        2.17747559       0.23430253      -3.23752763
H        5.72819110       2.95303135      -5.25358612
H        6.51965463       7.52189601      -6.77560263
H        8.34308865       7.91631914      -8.37557443
H        9.26180435       3.70669584      -8.37160885
H        7.44959213       3.30116814      -6.77843325
C       -1.79134849      -1.79134849      -1.79134849
C       -1.69330628      -3.17737571      -1.70286773
C       -2.50098108      -3.98466222      -2.51092921
C       -3.41014638      -3.41357960      -3.41435910
C       -3.49735227      -2.01536659      -3.48342677
C       -2.69071176      -1.20561094      -2.67734417
C       -4.25837342      -4.24596387      -4.26498529
N       -3.89604905      -5.47760518      -4.74016738
H       -3.02146865      -5.96642447      -4.58805719
N       -4.81992132      -6.07133945      -5.50685453
C       -5.83562076      -5.19443948      -5.56161960
C       -5.51554224      -4.03602296      -4.79909804
C       -7.05797945      -5.47947057      -6.32555983
C       -7.19505935      -6.69444248      -7.01867761
C       -8.35107821      -6.98105473      -7.75165806
C       -9.38479666      -6.05105440      -7.79830310
Br     -10.94924725      -6.43204864      -8.78760023
C       -9.27237980      -4.84035384      -7.11957329
C       -8.11385506      -4.55664904      -6.38660601
H       -0.99864533      -3.64000554      -1.00637570
H       -2.41980908      -5.06359720      -2.40346467
H       -4.18692146      -1.53802538      -4.17588178
H       -2.77315682      -0.12442160      -2.75172734
H       -6.12876808      -3.16011975      -4.64592074
H       -6.39412627      -7.43162984      -6.99139716
H       -8.42856613      -7.92885820      -8.27755788
H      -10.07719430      -4.11027700      -7.15263774
H       -8.05706142      -3.60372128      -5.86841082
C       -1.79134849       1.79134849       1.79134849
C       -2.58642834       1.21107074       2.77605064
C       -3.39415423       2.01910409       3.58331420
C       -3.41527876       3.41153296       3.41127336
C       -2.60228124       3.97629696       2.41756743
C       -1.79418893       3.17101380       1.60846415
C       -4.25580166       4.26640143       4.24711949
N       -5.45802179       3.88006826       4.77573155
H       -5.92614519       2.98859923       4.66120589
N       -6.06975954       4.81863205       5.50972371
C       -5.25229092       5.88282974       5.45655918
C       -4.10791357       5.57420771       4.66854196
C       -5.57955573       7.13965275       6.14380138
C       -6.76708716       7.25434017       6.88675211
C       -7.09445467       8.44361688       7.54571946
C       -6.23341442       9.53360938       7.46713037
Br      -6.67039504      11.14374699       8.35475408
C       -5.05085207       9.44415437       6.73730048
C       -4.72605413       8.25209606       6.07895993
H       -2.58143667       0.13481284       2.92877707
H       -3.98643467       1.54080345       4.35963281
H       -2.59720911       5.05125569       2.25236382
H       -1.17593834       3.63123449       0.84213292
H       -3.27121805       6.21942852       4.44416199
H       -7.45063223       6.40963294       6.95688809
H       -8.01970235       8.50269842       8.11258145
H       -4.37450861      10.29281735       6.67278309
H       -3.79658018       8.21444163       5.51817172
C        1.79134849      -1.79134849       1.79134849
C        2.70437758      -1.20525198       2.66392016
C        3.51204322      -2.01331797       3.47121132
C        3.41523512      -3.41185459       3.41099537
C        2.48482822      -3.98175751       2.52955989
C        1.67644468      -3.17653278       1.72068941
C        4.25430997      -4.26698518       4.24802743
N        5.52073441      -3.94055115       4.65253605
H        6.04331366      -3.10080533       4.43183133
N        6.11794496      -4.86801035       5.41215998
C        5.22171444      -5.86376392       5.50620147
C        4.04371727      -5.52348147       4.78346451
C        5.50865045      -7.08808817       6.26627123
C        6.74037775      -7.24245681       6.92534488
C        7.03017549      -8.40176256       7.65185294
C        6.08666061      -9.42153626       7.72595731
Br       6.47244782     -10.99093239       8.70551590
C        4.85904785      -9.29166887       7.08159021
C        4.57206228      -8.12975892       6.35528891
H        2.79206523      -0.12371392       2.72924742
H        4.19907569      -1.52776866       4.16002658
H        2.38622788      -5.06212342       2.45247731
H        0.96575470      -3.64127070       1.04228036
H        3.14583029      -6.11402377       4.67495451
H        7.48848427      -6.45279046       6.87587854
H        7.99114923      -8.49283997       8.15099302
H        4.11825745     -10.08542878       7.13642282
H        3.60577881      -8.05918445       5.86423026
C       -0.00445707       0.01189536      -1.78238275
H       -0.66409135       0.67374010      -2.43557963
H        0.65740317      -0.63156657      -2.45157240
C       -0.90989263      -0.90692880      -0.91072765
C        0.90977584       0.90977584      -0.90977584
C       -0.00465871       1.77757030       0.00794375
H       -0.66225468       2.44313916      -0.64384735
H        0.64322798       2.43503045       0.67728295
C       -1.78241447       0.00034974      -0.00472694
H       -2.45427497      -0.65498947       0.64260836
H       -2.43311707       0.67328779      -0.65473579
C       -0.91132561       0.90220522       0.91563759
C       -0.01476271      -0.02253852       1.78660255
H       -0.67934791      -0.69751639       2.42135241
H        0.63392994       0.61504881       2.47327442
C        0.01484550      -1.77751727      -0.01636693
H        0.67870853      -2.42144646      -0.68295456
H       -0.62264859      -2.45592969       0.64226336
C        1.78714474       0.01002794       0.00389507
H        2.44202412       0.67113390       0.66197326
H        2.45385902      -0.65136977      -0.64189061
C        0.91606151      -0.90478549       0.90901405
