142
Properties=species:S:1:pos:R:3 pbc="F F F"
C        1.79134849       1.79134849      -1.79134849
C        2.02751031       3.11525656      -1.43078285
C        2.83502642       3.92264743      -2.23889866
C        3.41015240       3.41438454      -3.41354815
C        3.16441882       2.07640757      -3.75531923
C        2.35697099       1.26691316      -2.94978272
C        4.25435387       4.24799815      -4.26697056
N        4.09954922       5.60018507      -4.41408732
H        3.40135278       6.19349593      -3.98110161
N        4.97746091       6.17263694      -5.24801744
C        5.74063226       5.16018607      -5.69086150
C        5.31176876       3.93792534      -5.10096915
C        6.83472175       5.38204434      -6.64624376
C        7.11402093       6.67619889      -7.11795962
C        8.15066952       6.90470537      -8.02841611
C        8.92054528       5.83631755      -8.47729134
C        8.66317394       4.54499161      -8.02414138
C        7.62478377       4.31972835      -7.11259800
H        1.59516478       3.52734295      -0.52251885
H        3.02128522       4.94537954      -1.92020618
H        3.58930188       1.65026525      -4.66126148
H        2.17747559       0.23430253      -3.23752763
H        5.72819110       2.95303135      -5.25358612
H        6.51965463       7.52189601      -6.77560263
H        8.34308865       7.91631914      -8.37557443
H        9.26180435       3.70669584      -8.37160885
H        7.44959213       3.30116814      -6.77843325
C        9.98871795       6.06647964      -9.41517862
C       10.88331257       6.25924040     -10.20065921
Br      12.32979641       6.57091823     -11.47071490
C       -1.79134849      -1.79134849      -1.79134849
C       -1.72518795      -3.17690317      -1.67145860
C       -2.53284617      -3.98419822      -2.47952813
C       -3.41013145      -3.41366910      -3.41428452
C       -3.46560800      -2.01574383      -3.51479379
C       -2.65888834      -1.20600167      -2.70877687
C       -4.25796522      -4.24611249      -4.26524486
N       -3.91237801      -5.49513025      -4.70631335
H       -3.05198450      -5.99894456      -4.52502126
N       -4.83243929      -6.08561745      -5.48005856
C       -5.82755731      -5.18880933      -5.57531320
C       -5.49871746      -4.02121137      -4.83073442
C       -7.03935268      -5.46435892      -6.35929826
C       -7.18796901      -6.69085843      -7.02935201
C       -8.33414424      -6.96872295      -7.78092381
C       -9.34629688      -6.01828194      -7.86957535
C       -9.22212019      -4.79584096      -7.21434578
C       -8.07350280      -4.52093587      -6.46267145
H       -1.05558514      -3.63896373      -0.95047771
H       -2.47731082      -5.06203381      -2.34752631
H       -4.12988877      -1.53899910      -4.23194075
H       -2.71634746      -0.12517063      -2.80778766
H       -6.09596796      -3.12942090      -4.70941971
H       -6.40391699      -7.44406734      -6.96916893
H       -8.42095850      -7.92582228      -8.28820144
H      -10.01008316      -4.04978223      -7.28024366
H       -8.00709952      -3.55844325      -5.96365074
C      -10.52815956      -6.29953097      -8.64268568
C      -11.51796956      -6.53507704      -9.29016558
Br     -13.11840861      -6.91593510     -10.33708582
C       -1.79134849       1.79134849       1.79134849
C       -2.59093216       1.21053663       2.77208092
C       -3.39865584       2.01857131       3.57934537
C       -3.41527798       3.41154451       3.41126259
C       -2.59779544       3.97681695       2.42153324
C       -1.78969213       3.17153667       1.61243807
C       -4.25574611       4.26642632       4.24715015
N       -5.46059284       3.88204422       4.77118455
H       -5.93094657       2.99226268       4.65274106
N       -6.07174307       4.82025359       5.50611864
C       -5.25106629       5.88223685       5.45837670
C       -4.10531274       5.57258269       4.67276782
C       -5.57669548       7.13801653       6.14829785
C       -6.76603065       7.25399187       6.88815692
C       -7.09187527       8.44230745       7.54960828
C       -6.22747966       9.53003274       7.47664177
C       -5.04307879       9.43926621       6.74996193
C       -4.71981352       8.24817465       6.08912194
H       -2.58947743       0.13383389       2.92171525
H       -3.99454718       1.53975011       4.35257364
H       -2.58915419       5.05222740       2.25944703
H       -1.16791167       3.63217443       0.84921965
H       -3.26612057       6.21602964       4.45265835
H       -7.45220252       6.41106202       6.95388873
H       -8.01858081       8.50242721       8.11397421
H       -4.36411331      10.28615638       6.68983936
H       -3.78883764       8.20945215       5.53090373
C       -6.55887027      10.75593416       8.15557179
C       -6.83640989      11.78262660       8.72417568
Br      -7.28516800      13.44270144       9.64356009
C        1.79134849      -1.79134849       1.79134849
C        2.72609565      -1.20619231       2.64126175
C        3.53374967      -2.01426379       3.44855905
C        3.41522137      -3.41191851       3.41094521
C        2.46320750      -3.98075400       2.55218413
C        1.65476954      -3.17553581       1.74336152
C        4.25402617      -4.26707591       4.24822050
N        5.53114400      -3.95383913       4.62883848
H        6.06277656      -3.12547159       4.38770217
N        6.12589120      -4.87880475       5.39341935
C        5.21645256      -5.85938179       5.51584549
C        4.03286120      -5.51212942       4.80567263
C        5.49657998      -7.07644743       6.28998244
C        6.73569597      -7.23958857       6.93289490
C        7.01914547      -8.39219355       7.67245197
C        6.06177387      -9.39636731       7.77601299
C        4.82662892      -9.25756505       7.14811296
C        4.54603287      -8.10239591       6.40868133
H        2.83086108      -0.12525072       2.68891478
H        4.23827496      -1.52895208       4.11964389
H        2.34737155      -5.06053381       2.49292325
H        0.92705940      -3.63952811       1.08271825
H        3.12473951      -6.09057847       4.71949060
H        7.49464826      -6.46214867       6.86035634
H        7.98609335      -8.49034604       8.15854282
H        4.07501127     -10.03912829       7.22596949
H        3.57359325      -8.02454108       5.93105919
C        6.34914431     -10.58527731       8.53595460
C        6.58981705     -11.58098943       9.17240570
Br       6.97896452     -13.19097171      10.20149330
C       -0.00445707       0.01189536      -1.78238275
H       -0.66409135       0.67374010      -2.43557963
H        0.65740317      -0.63156657      -2.45157240
C       -0.90989263      -0.90692880      -0.91072765
C        0.90977584       0.90977584      -0.90977584
C       -0.00465871       1.77757030       0.00794375
H       -0.66225468       2.44313916      -0.64384735
H        0.64322798       2.43503045       0.67728295
C       -1.78241447       0.00034974      -0.00472694
H       -2.45427497      -0.65498947       0.64260836
H       -2.43311707       0.67328779      -0.65473579
C       -0.91132561       0.90220522       0.91563759
C       -0.01476271      -0.02253852       1.78660255
H       -0.67934791      -0.69751639       2.42135241
H        0.63392994       0.61504881       2.47327442
C        0.01484550      -1.77751727      -0.01636693
H        0.67870853      -2.42144646      -0.68295456
H       -0.62264859      -2.45592969       0.64226336
C        1.78714474       0.01002794       0.00389507
H        2.44202412       0.67113390       0.66197326
H        2.45385902      -0.65136977      -0.64189061
C        0.91606151      -0.90478549       0.90901405
