181
Properties=species:S:1:pos:R:3 pbc="F F F"
C        0.00000000       0.00000000       0.00000000
C        0.88283796       0.88283796      -0.88283796
C        1.30561639       2.11860787      -0.40982048
C        2.12283998       2.90655180      -1.21161808
C        2.51629263       2.45418013      -2.47783768
C        2.09654873       1.20981119      -2.97725658
C        1.26729395       0.43215764      -2.15011357
N        2.51874950       0.73049191      -4.25684369
C        1.90049979      -0.29162281      -4.94618054
O        0.81652297      -0.81943010      -4.72860840
C        2.77668045      -0.67855582      -6.10490346
H        2.19084532      -0.90640103      -6.99975272
O        3.53896249      -1.81314780      -5.70652093
N        4.89280173      -1.47685377      -5.87512192
C        5.87084070      -2.08138180      -5.07463092
C        5.51066862      -3.08041185      -4.15495305
C        6.45945462      -3.70384803      -3.33881354
C        7.80005150      -3.34987239      -3.43782041
C        8.18830856      -2.38192102      -4.35821035
C        7.23307461      -1.75990417      -5.17062391
C        5.06778231      -0.13038956      -6.42527658
H        5.81390093       0.43205319      -5.84985881
C        5.50805421      -0.16494717      -7.88269036
C        6.20841651       0.93490563      -8.40975283
C        6.62791325       0.94449390      -9.74194619
C        6.34874978      -0.14083180     -10.57030979
C        5.64793449      -1.23152384     -10.06248952
Br       5.26645378      -2.70435622     -11.18492955
C        5.22568696      -1.24823080      -8.73259506
C        3.69759871       0.48779297      -6.28125565
H        3.38903243       1.16651059      -7.08384290
C        3.57939795       1.22812231      -4.98133666
O        4.33987433       2.14899666      -4.70644975
H        1.01026387       2.47140039       0.57453607
H        2.46106048       3.87697194      -0.85574837
H        3.14435620       3.12307497      -3.05994663
H        0.93171362      -0.55503974      -2.45627561
H        4.47023913      -3.38345028      -4.06059663
H        6.14586682      -4.46689528      -2.63150237
H        8.54075684      -3.83454578      -2.80780925
H        9.23717062      -2.11332636      -4.45375697
H        7.58591611      -1.03215831      -5.89571157
H        6.44173446       1.79338685      -7.78080141
H        7.17732643       1.79742156     -10.13349681
H        6.68264621      -0.12860162     -11.60455599
H        4.68991780      -2.11726877      -8.35421054
C       -0.88283796      -0.88283796      -0.88283796
C       -1.52589840      -0.32674294      -1.98140339
C       -2.31168160      -1.14039803      -2.78893024
C       -2.44677144      -2.50405701      -2.49748197
C       -1.80879309      -3.08578123      -1.38904217
C       -1.02258751      -2.24240257      -0.58457507
N       -1.91970788      -4.48276727      -1.10360994
C       -1.61722946      -5.05301360       0.11518554
O       -1.41310793      -4.50361132       1.19101799
C       -1.60439229      -6.54702223      -0.05161357
H       -2.03987569      -7.05668966       0.81236835
O       -0.25030904      -6.94680932      -0.23521725
N       -0.19152574      -7.64816920      -1.45137494
C        0.99549274      -7.66421167      -2.19537089
C        2.15155503      -7.04469721      -1.69206765
C        3.35269871      -7.03938586      -2.40773299
C        3.42732712      -7.67213321      -3.64319343
C        2.30483767      -8.31561350      -4.15382207
C        1.10470640      -8.31514892      -3.43335183
C       -1.50514014      -7.76889755      -2.08863164
H       -1.45029782      -7.49555557      -3.14995955
C       -2.06024122      -9.18300445      -1.98255173
C       -3.00040064      -9.61962942      -2.93304490
C       -3.53609364     -10.90800033      -2.87025937
C       -3.14657752     -11.77798252      -1.85366773
C       -2.22350005     -11.35398659      -0.90141352
Br      -1.69489211     -12.53191444       0.47977944
C       -1.68398955     -10.06831689      -0.95774478
C       -2.35809129      -6.78643977      -1.32211627
H       -3.40099305      -7.07933205      -1.15906082
C       -2.35630411      -5.44261637      -1.98993644
O       -2.73699262      -5.31096330      -3.14736481
H       -1.41856240       0.72852248      -2.21708827
H       -2.82243041      -0.71946069      -3.65188968
H       -3.08542285      -3.08217286      -3.15978210
H       -0.47286718      -2.62932574       0.26924343
H        2.12532659      -6.54805958      -0.72465249
H        4.22626864      -6.54326730      -1.99347524
H        4.35986899      -7.67317337      -4.20071592
H        2.36110891      -8.82795199      -5.11075817
H        0.26316447      -8.85592726      -3.85670658
H       -3.31761725      -8.95903632      -3.73926915
H       -4.25478004     -11.23571097      -3.61775380
H       -3.56383443     -12.78079000      -1.81397614
H       -0.95448878      -9.76299664      -0.20937416
C       -0.88283796       0.88283796       0.88283796
C       -1.28921441       0.41774218       2.12708814
C       -2.07633135       1.23408047       2.93059803
C       -2.44873668       2.51046536       2.48910839
C       -2.05241965       2.99856972       1.23262712
C       -1.26008282       2.15359635       0.43588599
N       -2.40529226       4.31164044       0.78915239
C       -2.35045067       4.72886653      -0.52425968
O       -2.20744963       4.05682874      -1.53857711
C       -2.53809217       6.22013510      -0.55519918
H       -3.15208754       6.53549893      -1.40338947
O       -1.24609510       6.81391336      -0.62767285
N       -1.13578517       7.68965849       0.46562622
C        0.12159408       7.96881354       1.01687036
C        1.28216745       7.43570768       0.43166960
C        2.55291363       7.69154169       0.95579206
C        2.69143057       8.50492021       2.07450988
C        1.56116244       9.06693904       2.65882129
C        0.29164678       8.80485919       2.13058194
C       -2.35954409       7.73328180       1.26984344
H       -2.12839852       7.62985600       2.33755842
C       -3.12735870       9.03250138       1.06593732
C       -3.99145555       9.48048452       2.08113488
C       -4.71599935      10.66534848       1.93300552
C       -4.59423840      11.41769095       0.76629841
C       -3.74899151      10.97962721      -0.24971855
Br      -3.58355281      11.99772484      -1.83425054
C       -3.02193755       9.79694594      -0.10883227
C       -3.14884922       6.54628669       0.77151142
H       -4.23588951       6.67483402       0.72866239
C       -2.86157486       5.32802565       1.59925642
O       -3.06610333       5.32164641       2.80757100
H       -0.99697867      -0.56811968       2.47826920
H       -2.40340656       0.88359364       3.90678059
H       -3.07535554       3.09327207       3.15875019
H       -0.88857010       2.47711275      -0.53273337
H        1.20545709       6.80180316      -0.44896060
H        3.42967098       7.25622606       0.48391883
H        3.67748826       8.70888852       2.48262005
H        1.66364848       9.71855540       3.52269431
H       -0.55916291       9.28944179       2.60086467
H       -4.10052001       8.91154416       3.00385856
H       -5.37294689      11.00496294       2.73033498
H       -5.15729907      12.34125707       0.66004443
H       -2.35782258       9.48054895      -0.91151196
C        0.88283796      -0.88283796       0.88283796
C        1.36059992      -2.08845285       0.38499196
C        2.17735420      -2.87592242       1.18773324
C        2.51547862      -2.45298630       2.47984551
C        2.03963019      -1.23954904       3.00443727
C        1.21199695      -0.46191104       2.17565717
N        2.40516762      -0.78921985       4.31169762
C        1.73227456       0.18969025       5.01247321
O        0.63904568       0.68972513       4.77638071
C        2.55817308       0.56606737       6.21092238
H        1.93713892       0.74583467       7.09289275
O        3.29516111       1.73666887       5.87384338
N        4.65325742       1.43810100       6.07591345
C        5.63586276       2.09918189       5.32740895
C        5.27251356       3.11585651       4.42855278
C        6.22577338       3.79541113       3.66405788
C        7.57342459       3.48103762       3.79561255
C        7.96379014       2.49627595       4.69708370
C        7.00416066       1.81805680       5.45769049
C        4.85468336       0.08057647       6.58856243
H        5.63666242      -0.43881494       6.02033557
C        5.24719209       0.08135944       8.05996476
C        5.96611679      -1.01240823       8.57454994
C        6.34328380      -1.05228622       9.91878333
C        6.00265193      -0.00403649      10.77153935
C        5.28296480       1.07993596      10.27587133
Br       4.81812501       2.50242602      11.43132812
C        4.90274410       1.12676287       8.93406999
C        3.51071229      -0.57566380       6.38027125
H        3.19924601      -1.28971485       7.15042506
C        3.45804406      -1.27643521       5.05437766
O        4.25657242      -2.16326501       4.77548330
H        1.10828518      -2.41802786      -0.61918486
H        2.55825187      -3.82297517       0.81255375
H        3.14633423      -3.12033509       3.06070849
H        0.83476263       0.50361167       2.50179853
H        4.22623760       3.38870377       4.30985164
H        5.90995325       4.57087495       2.97139562
H        8.31746302       4.00929051       3.20584780
H        9.01732517       2.25806494       4.81834101
H        7.35747545       1.07851975       6.17051367
H        6.24721013      -1.84202639       7.92668620
H        6.90762985      -1.89973347      10.30088147
H        6.30383382      -0.03951661      11.81525014
H        4.35108362       1.99030520       8.56608116
