193
Properties=species:S:1:pos:R:3 pbc="F F F"
C        0.00000000       0.00000000       0.00000000
C        0.88073164       0.88073164      -0.88073164
C        2.23284983       0.59477741      -1.01983857
C        3.04046819       1.40485649      -1.83090128
C        2.51806418       2.51825094      -2.50956756
C        1.14458926       2.77741018      -2.35015165
C        0.33103767       1.96813742      -1.54605635
N        3.33403270       3.34648401      -3.34147300
C        2.98377283       4.61496150      -3.75453655
O        2.06099946       5.32387055      -3.37231405
C        3.97463515       5.06339503      -4.79094430
H        4.21177290       6.12652538      -4.69377473
O        3.41123084       4.79423495      -6.07291836
N        4.31083660       3.94054071      -6.74518450
C        3.80152572       2.87209845      -7.50404442
C        4.62907290       1.93010829      -8.13376235
C        4.09404805       0.86828349      -8.87233649
C        2.71619191       0.73918222      -9.01394178
C        1.87523394       1.67946585      -8.42980766
C        2.41566643       2.73699815      -7.69191929
C        5.56134128       3.77657291      -5.98489112
H        5.91469966       2.73992887      -6.00984434
C        6.65978220       4.69032759      -6.52221717
C        6.37676842       5.86398321      -7.24641320
C        7.40858899       6.68644979      -7.70224846
C        8.73823087       6.35989976      -7.45119126
C        9.03990731       5.20405706      -6.73236714
C        8.00616475       4.38760079      -6.27056831
O        8.29729217       3.26804232      -5.54496751
C        5.15753328       4.16979261      -4.58481212
H        5.94221238       4.62149435      -3.96850550
C        4.58239227       3.00808943      -3.82340285
O        5.20980031       1.96887443      -3.66208271
H        2.67690880      -0.25294303      -0.50385519
H        4.09278316       1.14107047      -1.88836651
H        0.65469034       3.59786892      -2.86887679
H       -0.72741127       2.19921289      -1.45584323
H        5.71119869       2.01055241      -8.07556229
H        4.75818468       0.14681536      -9.34106557
H        2.29981171      -0.08474566      -9.58685316
H        0.79803222       1.59698684      -8.54645253
H        1.73311447       3.46122873      -7.25332028
H        5.34630547       6.13843245      -7.46596377
H        9.54211928       6.99837480      -7.80846736
H       10.08055135       4.96121892      -6.53824213
H        9.26122656       3.13732395      -5.52773735
C        7.09496351       7.88689784      -8.43311338
C        6.83230217       8.89227309      -9.04521275
Br       6.40760100      10.51787982     -10.03492566
C       -0.88073164      -0.88073164      -0.88073164
C       -2.06206570      -0.37621796      -1.40918216
C       -2.86961836      -1.18703310      -2.21957449
C       -2.51979898      -2.51610537      -2.50997833
C       -1.31553309      -2.99437409      -1.96224392
C       -0.50117854      -2.18725273      -1.15680017
N       -3.33568447      -3.34769789      -3.33860735
C       -3.24067929      -4.72271955      -3.38987203
O       -2.62066837      -5.48149384      -2.65502186
C       -4.08614797      -5.21119382      -4.53163270
H       -4.59731921      -6.14675251      -4.28800129
O       -3.23012038      -5.39038176      -5.65788201
N       -3.73417411      -4.57196238      -6.69042532
C       -2.83239620      -3.85176292      -7.49350946
C       -3.25444766      -2.95332131      -8.48517457
C       -2.33400436      -2.23939951      -9.26126417
C       -0.96819624      -2.42640923      -9.07471044
C       -0.52395670      -3.33735637      -8.12319438
C       -1.44830740      -4.04631008      -7.34996639
C       -5.02857986      -3.97711544      -6.31711001
H       -5.09778216      -2.93119218      -6.63549853
C       -6.19206335      -4.75956224      -6.92070136
C       -6.07511840      -6.10960870      -7.30243773
C       -7.16873502      -6.79832982      -7.83022240
C       -8.39607953      -6.16175268      -7.99148968
C       -8.53411376      -4.82622314      -7.61599461
C       -7.44137189      -4.14207831      -7.08088364
O       -7.57987983      -2.84131256      -6.68910960
C       -5.02302401      -4.07789772      -4.81121628
H       -6.00231158      -4.19499658      -4.33490408
C       -4.33744577      -2.90029244      -4.17614633
O       -4.70260915      -1.75067161      -4.38747669
H       -2.37213309       0.64472884      -1.20041671
H       -3.78874274      -0.74255350      -2.59092390
H       -0.95464484      -3.99929149      -2.16749973
H        0.42547328      -2.59373296      -0.75938518
H       -4.31131483      -2.79993108      -8.68606747
H       -2.68867028      -1.54185090     -10.01554442
H       -0.25285086      -1.87263426      -9.67643409
H        0.54036753      -3.50253160      -7.97930752
H       -1.07090588      -4.75770729      -6.61905032
H       -5.12434523      -6.62947981      -7.19687666
H       -9.24710900      -6.69668554      -8.40516690
H       -9.49742640      -4.34066541      -7.74192058
H       -8.46356875      -2.52166764      -6.94105148
C       -7.02820179      -8.18151377      -8.20525918
C       -6.91050521      -9.33993032      -8.51935248
Br      -6.72019979     -11.21299192      -9.02721478
C       -0.88073164       0.88073164       0.88073164
C       -0.50718787       2.19142649       1.14885146
C       -1.31880684       2.99977310       1.95764601
C       -2.51076434       2.51452357       2.52059477
C       -2.86162816       1.18441811       2.22610482
C       -2.05804305       0.37355636       1.41363203
N       -3.34560442       3.33361672       3.34276857
C       -4.32266188       2.84553683       4.18507217
O       -4.53911613       1.68986893       4.52819900
C       -5.13035477       4.00630213       4.69231758
H       -5.41639296       3.87593303       5.73974702
O       -6.28986571       4.11855307       3.86996537
N       -6.27223104       5.41355288       3.31077789
C       -6.63434107       5.58078696       1.96254056
C       -6.56360113       6.82037076       1.30897165
C       -6.91798445       6.95510714      -0.03842355
C       -7.37199529       5.85301970      -0.75569908
C       -7.48534740       4.62098455      -0.12182450
C       -7.12828963       4.49242105       1.22387319
C       -5.19626402       6.23274970       3.89379159
H       -4.69380266       6.83873680       3.13193342
C       -5.73173261       7.15228940       4.98830494
C       -6.92122936       6.87676730       5.68916816
C       -7.36703943       7.73045733       6.69979049
C       -6.64436388       8.87276126       7.03219675
C       -5.46164225       9.16172597       6.35296329
C       -5.01365826       8.30224341       5.34843217
O       -3.84289147       8.56915311       4.69825742
C       -4.25476625       5.19771949       4.45965226
H       -3.68643592       5.49999922       5.34577709
C       -3.27708154       4.70960555       3.42719746
O       -2.53545563       5.47775113       2.82755069
H        0.41261365       2.60139646       0.73903816
H       -0.96705658       4.01048752       2.14467604
H       -3.78539484       0.74337617       2.59266504
H       -2.36964208      -0.64681093       1.20481370
H       -6.24445795       7.71352145       1.83933399
H       -6.84357162       7.92525285      -0.52275887
H       -7.64715841       5.95642789      -1.80166709
H       -7.85302259       3.75667233      -0.66822333
H       -7.23512803       3.51788845       1.69464701
H       -7.51176358       5.99578906       5.44314905
H       -6.99260085       9.53938863       7.81697196
H       -4.90332267      10.05317073       6.62351900
H       -3.50556403       9.43537676       4.98534707
C       -8.58185943       7.42362871       7.40948660
C       -9.59927118       7.16665974       8.00385708
Br     -11.24433993       6.75116266       8.96490389
C        0.88073164      -0.88073164       0.88073164
C        0.43027704      -2.13032971       1.28685906
C        1.24191219      -2.93891784       2.09539592
C        2.51130201      -2.51373346       2.52084722
C        2.93851048      -1.24499038       2.08865023
C        2.13474113      -0.43486864       1.27562166
N        3.34629806      -3.33391681       3.34177483
C        4.42602545      -2.86602387       4.06122155
O        4.75998965      -1.70957692       4.28761749
C        5.18085745      -4.04784022       4.60027680
H        5.56361908      -3.86095776       5.60749617
O        6.25449828      -4.32129793       3.70258793
N        6.08894268      -5.64976629       3.25785284
C        6.32176280      -5.95142974       1.90447604
C        6.09979554      -7.22771046       1.36543753
C        6.32754096      -7.49637314       0.01075394
C        6.80375460      -6.49576210      -0.83020079
C        7.06580096      -5.23211226      -0.31340577
C        6.83477490      -4.96948786       1.04032111
C        5.00557054      -6.32727868       3.98995609
H        4.39491434      -6.94612172       3.32343680
C        5.55835982      -7.20075831       5.11320882
C        6.82062781      -6.97296964       5.69356738
C        7.28239234      -7.77999304       6.73490186
C        6.50365468      -8.82782198       7.21784523
C        5.24889745      -9.06785279       6.65958127
C        4.78593877      -8.25441742       5.62397765
O        3.54722845      -8.47128689       5.09178665
C        4.19866852      -5.17552936       4.53794013
H        3.68541332      -5.35882682       5.48797209
C        3.17824786      -4.68843862       3.54719807
O        2.33108781      -5.43553938       3.07413025
H       -0.54996391      -2.49179908       0.98598579
H        0.82960938      -3.89867400       2.39393675
H        3.92145585      -0.85635659       2.34362362
H        2.50606958       0.53617167       0.95774694
H        5.75803419      -8.04670886       1.99257034
H        6.13719298      -8.49151512      -0.38264251
H        6.98070206      -6.70314865      -1.88193150
H        7.45217373      -4.44710893      -0.95781107
H        7.05652989      -3.97378244       1.41735116
H        7.45505267      -6.16685113       5.32879789
H        6.86397799      -9.45836034       8.02662311
H        4.64773167      -9.88517945       7.04710128
H        3.16895195      -9.28093780       5.47639811
C        8.57299903      -7.52255633       7.31941937
C        9.65388213      -7.30695309       7.80895278
Br      11.40157869      -6.95834089       8.60048691
