185
Properties=species:S:1:pos:R:3 pbc="F F F"
C        0.00000000       0.00000000       0.00000000
C        0.88163944       0.88163944      -0.88163944
C        1.82340285       0.29468484      -1.72361196
C        2.61728266       1.10094381      -2.54055293
C        2.47594585       2.49649680      -2.51710033
C        1.52401594       3.07201206      -1.66306834
C        0.73019348       2.26626793      -0.84504452
C        3.26799899       3.35712893      -3.47075446
O        4.66021065       3.04443642      -3.37933664
C        5.43599397       3.47871540      -4.42193177
C        5.02392616       4.39282967      -5.39903267
C        5.87254015       4.72178862      -6.45277054
C        7.14826950       4.16491250      -6.49624900
C        7.59355802       3.30280308      -5.50409622
C        6.73056490       2.94315533      -4.47008938
O        8.86837656       2.79062535      -5.51173394
C        9.82228414       3.46190829      -6.27677457
C       11.23040904       3.09181555      -5.92147777
C        9.51499523       4.36169704      -7.23187630
O       10.48534726       5.12707720      -7.87196374
C       10.16816156       6.43490338      -8.18970553
C        9.43876536       7.25453921      -7.31239668
C        9.05755591       8.54011431      -7.70005803
C        9.44730955       9.03553752      -8.94215313
C       10.23277457       8.25271952      -9.79072064
C       10.59725279       6.95605132      -9.41412199
C        8.07329033       4.52288982      -7.57028181
O        7.66277665       4.96270803      -8.63558815
H        1.94231619      -0.78471978      -1.75895635
H        3.34315898       0.63701424      -3.20618089
H        1.38652870       4.15103207      -1.63617428
H       -0.00659173       2.72633359      -0.19207536
H        3.12714653       4.41803001      -3.23037735
H        2.87760225       3.15386549      -4.47661557
H        4.04845089       4.86826287      -5.37283478
H        5.54912801       5.41988129      -7.22182494
H        7.06117418       2.25314099      -3.69867456
H       11.94613718       3.37619449      -6.69975740
H       11.31350434       2.00726248      -5.79155038
H       11.52505311       3.57408872      -4.98505855
H        9.13028975       6.89406374      -6.33485982
H        8.44643258       9.14854843      -7.03769462
H        9.14099828      10.03209604      -9.24972335
H       10.54494982       8.65719038     -10.74976266
C       11.40878728       6.18258817     -10.31787336
C       12.08844740       5.53481277     -11.07476513
Br      13.18740035       4.48741475     -12.29859510
C       -0.88163944      -0.88163944      -0.88163944
C       -2.01904261      -0.34348044      -1.47917659
C       -2.81492959      -1.14626196      -2.29758784
C       -2.47974119      -2.49032628      -2.51947551
C       -1.33204231      -3.01733726      -1.90971677
C       -0.53596530      -2.21521803      -1.09032259
C       -3.28837598      -3.32700590      -3.48050049
O       -4.67729482      -3.25881717      -3.14787172
C       -5.54344090      -3.66395247      -4.12924777
C       -5.17187832      -4.35531111      -5.28859907
C       -6.12557522      -4.66774653      -6.25377756
C       -7.45626959      -4.32347688      -6.02968453
C       -7.85066039      -3.69037966      -4.85941727
C       -6.89034844      -3.34290392      -3.91055725
O       -9.16848924      -3.39460317      -4.60764344
C      -10.13106251      -4.09851212      -5.33139238
C      -11.50089393      -4.01335483      -4.72945361
C       -9.86031556      -4.79583027      -6.45242273
O      -10.80575745      -5.61164512      -7.06698562
C      -10.36595937      -6.79435020      -7.63246091
C       -9.39813304      -7.59903546      -7.00853274
C       -8.91014220      -8.73998111      -7.64760493
C       -9.42281797      -9.11492782      -8.88725440
C      -10.43569217      -8.35924797      -9.48127458
C      -10.91065648      -7.20323046      -8.85353916
C       -8.48388133      -4.67378694      -7.00879369
O       -8.19376814      -4.88973364      -8.17757104
H       -2.29044958       0.69693428      -1.32303745
H       -3.69588420      -0.71789741      -2.77257250
H       -1.04390344      -4.05320807      -2.07662355
H        0.35307044      -2.63629312      -0.62859454
H       -2.96500474      -4.37419903      -3.43635013
H       -3.09739987      -2.92606362      -4.48461982
H       -4.14863861      -4.66606522      -5.47484471
H       -5.83698512      -5.19115050      -7.16269862
H       -7.18447115      -2.82888195      -2.99963664
H      -12.28646400      -4.29893790      -5.43668717
H      -11.71134235      -2.98502084      -4.41595401
H      -11.57086910      -4.66185183      -3.85147946
H       -8.98888085      -7.33242226      -6.03791020
H       -8.12182663      -9.32761201      -7.18323699
H       -9.03511809      -9.99665018      -9.39104939
H      -10.83948064      -8.67200889     -10.44041334
C      -11.95661405      -6.45325518      -9.49937957
C      -12.83260351      -5.82515088     -10.04027091
Br     -14.24900439      -4.80955935     -10.91484647
C       -0.88163944       0.88163944       0.88163944
C       -0.29305265       1.76573051       1.78291648
C       -1.09995413       2.58231310       2.57651216
C       -2.49764462       2.51650313       2.47539524
C       -3.07473952       1.62038906       1.56396775
C       -2.26832028       0.80271193       0.77047371
C       -3.36279329       3.46814551       3.26494357
O       -3.00947208       3.42476854       4.64974308
C       -3.45156204       4.47654764       5.40853146
C       -4.40392851       5.41609635       4.99576364
C       -4.73909262       6.48396548       5.82404122
C       -4.14879593       6.57880102       7.08183405
C       -3.24705459       5.62372142       7.52968131
C       -2.88217897       4.57600531       6.68562533
O       -2.70043300       5.68148913       8.78881372
C       -3.36659494       6.45444914       9.73992293
C       -2.94801830       6.14942713      11.14625694
C       -4.30114342       7.37537281       9.43205234
O       -5.05734354       8.02135417      10.40569048
C       -6.38186012       8.29391276      10.11699759
C       -7.19610751       7.37411948       9.43547425
C       -8.50212828       7.71534460       9.08025536
C       -9.02157266       8.95387033       9.44955721
C       -8.24175973       9.84551768      10.18893731
C       -6.92542746       9.51517859      10.52682006
C       -4.51142850       7.66831197       7.98672149
O       -4.99231968       8.70908492       7.55966823
H        0.78778257       1.83409459       1.87024074
H       -0.63524683       3.28070851       3.27039877
H       -4.15594020       1.55995407       1.45784079
H       -2.72982467       0.11676324       0.06522931
H       -4.41994458       3.19479674       3.16081257
H       -3.19886905       4.46777361       2.84144065
H       -4.90507712       5.34925857       4.03521285
H       -5.46728417       7.22407746       5.49947262
H       -2.16179479       3.83351611       7.01767883
H       -3.23450185       6.93952050      11.84806672
H       -1.85834993       6.05177673      11.20219053
H       -3.39533214       5.20880610      11.48006214
H       -6.81675209       6.39853340       9.14392782
H       -9.10816421       7.01948233       8.50502909
H      -10.03447714       9.22513287       9.16320766
H       -8.66445154      10.80151805      10.48593327
C       -6.15580571      10.46244680      11.29099628
C       -5.51124750      11.25578393      11.93099387
Br      -4.46905139      12.53854298      12.96581584
C        0.88163944      -0.88163944       0.88163944
C        0.38247904      -2.08533595       1.37388466
C        1.19490693      -2.89762068       2.16625179
C        2.50762531      -2.50914764       2.47277004
C        2.99485992      -1.29383331       1.97040311
C        2.18255884      -0.48044829       1.17849879
C        3.41289618      -3.43438002       3.24860617
O        2.77383842      -3.85288429       4.45726100
C        3.31711073      -4.95384809       5.06568231
C        4.55777952      -5.51605234       4.74195665
C        4.99048662      -6.67419788       5.38241482
C        4.19487361      -7.23765818       6.37689921
C        2.98982766      -6.65979903       6.75083063
C        2.53824321      -5.52251374       6.08305266
O        2.22457416      -7.17956862       7.76659308
C        2.85940108      -8.02471003       8.67685589
C        2.08213129      -8.21802634       9.94354474
C        4.05579294      -8.60233350       8.45044212
O        4.73497524      -9.31551508       9.43389788
C        6.11297886      -9.20770304       9.47208857
C        6.76666279      -7.98319106       9.25584739
C        8.16058379      -7.92523047       9.21191399
C        8.91131940      -9.07670604       9.43697476
C        8.26972711     -10.28351654       9.72297107
C        6.87286833     -10.34907718       9.74548059
C        4.64292918      -8.43142652       7.09210626
O        5.47302280      -9.18529556       6.60275447
H       -0.62975896      -2.40464024       1.14167148
H        0.80469325      -3.84342759       2.53823326
H        4.01365653      -0.97667019       2.18340834
H        2.57564814       0.45616024       0.79232932
H        4.34975799      -2.92345766       3.50233825
H        3.62678217      -4.28854432       2.59275683
H        5.21408833      -5.08021763       3.99524258
H        5.94705052      -7.12193200       5.12185173
H        1.58673440      -5.07295693       6.35329840
H        2.41932653      -9.09133141      10.51143113
H        1.02234205      -8.37500429       9.71497085
H        2.16924145      -7.33370563      10.58125330
H        6.20337324      -7.06962172       9.08621835
H        8.65852472      -6.98445183       8.98969909
H        9.99655058      -9.03494878       9.39131830
H        8.86702290     -11.17098300       9.91389696
C        6.25092927     -11.61268225      10.04563728
C        5.73005530     -12.67095150      10.29701851
Br       4.88784616     -14.38208336      10.70348068
