186
Properties=species:S:1:pos:R:3 pbc="F F F"
C        1.78279573       1.78279573      -1.78279573
C        1.48921135       2.07710425      -3.08918295
C        2.50649732       2.89178199      -3.66581008
C        3.52406566       3.19492775      -2.77768420
S        3.21571449       2.49782326      -1.23340753
C        4.68818421       3.97358140      -2.99403145
C        5.00092975       5.36561489      -2.50342543
C        5.89163222       5.85925452      -3.63435538
H        5.24903806       6.17294843      -4.47206682
C        6.87823217       6.95036109      -3.39031053
C        6.60587512       8.05275318      -2.57097862
C        7.55037896       9.06979449      -2.44122447
Br       7.18067779      10.55895745      -1.33486823
C        8.76324454       9.00577570      -3.12794968
C        9.02970228       7.91320067      -3.95289098
C        8.09048744       6.89040904      -4.08874556
O        8.43550426       5.85945901      -4.92158167
C        7.49829073       4.73977929      -5.07765127
C        6.79540907       4.91451456      -6.43992514
C        7.80245134       4.91224844      -7.59107946
N        8.63634610       3.70802815      -7.62266808
C        9.33840170       3.53274159      -6.34732726
C        8.39000746       3.48166908      -5.15057999
N        6.59621328       4.62505251      -3.93199986
N        5.59733119       3.54617260      -3.90138038
H        0.61313300       1.72715669      -3.61810273
H        2.51753611       3.24810889      -4.68700406
H        5.51699536       5.32500828      -1.53716828
H        4.09929379       5.97776559      -2.40174196
H        5.65768199       8.10928924      -2.04381334
H        9.50154323       9.79470430      -3.02848355
H        9.97073217       7.84905498      -4.49193382
H        6.25279195       5.86603976      -6.47922782
H        6.06374291       4.11310407      -6.60442785
H        8.43983619       5.80422561      -7.54393338
H        7.25399448       4.97444338      -8.53756167
H        9.32110978       3.79294045      -8.36987754
H       10.07943839       4.33081767      -6.21814830
H        9.90164258       2.59337382      -6.39076593
H        8.99631548       3.39605977      -4.23893538
H        7.78155687       2.57076400      -5.22483315
C       -1.78279573      -1.78279573      -1.78279573
C       -2.77462658      -2.59083107      -1.29004090
C       -3.40521549      -3.31737957      -2.34149433
C       -2.88035416      -3.02724934      -3.58907411
S       -1.63155139      -1.84758312      -3.46781077
C       -3.25315343      -3.55038886      -4.85225477
C       -4.02405322      -2.88215772      -5.96375913
C       -4.71808007      -4.08933825      -6.57782380
H       -5.59585055      -4.33760859      -5.96059417
C       -5.16295253      -4.05531964      -8.00063163
C       -5.71631315      -2.91585930      -8.59743447
C       -6.17292544      -2.97525933      -9.91321315
Br      -6.92120917      -1.43546349     -10.71783081
C       -6.09309810      -4.16315797     -10.64071385
C       -5.55230769      -5.30106711     -10.04241913
C       -5.09253342      -5.25104392      -8.72606469
O       -4.58078132      -6.41604695      -8.21971668
C       -4.05286934      -6.41343148      -6.84942047
C       -5.10451352      -7.09548061      -5.94985465
C       -5.37444362      -8.53241124      -6.39892438
N       -4.16405431      -9.35656306      -6.44642495
C       -3.15641974      -8.74406433      -7.31798649
C       -2.80222921      -7.31694595      -6.90308137
N       -3.65912919      -5.07069912      -6.42343734
N       -3.08826271      -4.87413919      -5.08248226
H       -3.03525376      -2.67905330      -0.24408535
H       -4.20703029      -4.03199190      -2.21362686
H       -3.33958116      -2.38134566      -6.65824510
H       -4.74452035      -2.15158943      -5.58269156
H       -5.78886176      -1.99295531      -8.02896750
H       -6.44614418      -4.21305320     -11.66553371
H       -5.48191740      -6.23223472     -10.59756885
H       -6.05738339      -6.55498717      -5.98568897
H       -4.77244445      -7.10506064      -4.90376974
H       -5.86823889      -8.54093444      -7.37882185
H       -6.07627865      -8.99415879      -5.69556208
H       -4.39894222     -10.27818810      -6.80679745
H       -3.50085261      -8.76864755      -8.35890419
H       -2.24895536      -9.35769130      -7.27913566
H       -2.08129742      -6.91986849      -7.63014472
H       -2.29801066      -7.35078864      -5.92835472
C       -1.78279573       1.78279573       1.78279573
C       -2.73636867       2.63323429       1.28589558
C       -3.37655521       3.34772533       2.33980884
C       -2.89693448       3.00695729       3.59278584
S       -1.67919360       1.79514471       3.47260697
C       -3.29153750       3.50463198       4.85962759
C       -4.11337103       2.82790831       5.92869073
C       -4.79045166       4.03693634       6.55785412
H       -5.64234348       4.32827816       5.92343166
C       -5.27759994       3.97548619       7.96581766
C       -5.88040918       2.83620195       8.51299579
C       -6.37349365       2.87148235       9.81642192
Br      -7.18854413       1.33199238      10.55396697
C       -6.28123743       4.03534747      10.58038502
C       -5.69098835       5.17349250      10.03131308
C       -5.19446082       5.14750488       8.72767634
O       -4.63514819       6.31095509       8.27044166
C       -4.06761049       6.33187478       6.91623602
C       -5.07261542       7.06976183       6.00747151
C       -5.31458143       8.50062063       6.49057718
N       -4.08313890       9.28727659       6.59662684
C       -3.11930717       8.62096806       7.47819532
C       -2.79387261       7.19647276       7.03191117
N       -3.69993323       4.99085182       6.46248059
N       -3.09585585       4.81589557       5.13313275
H       -2.96362809       2.75878446       0.23597987
H       -4.15361817       4.08886828       2.21016261
H       -3.46406654       2.28769920       6.62740618
H       -4.84286554       2.12989932       5.50603648
H       -5.96250989       1.93237120       7.91590347
H       -6.66258942       4.06637760      11.59576406
H       -5.61041888       6.08602218      10.61527991
H       -6.04112189       6.55661234       6.00032529
H       -4.70990741       7.09937701       4.97199041
H       -5.83642665       8.49571472       7.45585380
H       -5.98208611       9.00255906       5.78135435
H       -4.30215881      10.20475747       6.97701150
H       -3.49324506       8.62599687       8.50916242
H       -2.19399865       9.20860599       7.48317768
H       -2.10614092       6.75791655       7.76725316
H       -2.26055857       7.24325673       6.07333872
C        1.78279573      -1.78279573       1.78279573
C        1.37973072      -2.28106192       2.99470590
C        2.42174430      -3.04021360       3.60213148
C        3.56782033      -3.10065526       2.82820202
S        3.35275513      -2.24496027       1.34922988
C        4.79182997      -3.75908299       3.10488411
C        5.34279139      -5.02684528       2.50033340
C        6.15235119      -5.55882813       3.67406280
H        5.46344149      -6.05466582       4.37594599
C        7.29737877      -6.48420209       3.43732294
C        7.27252646      -7.49180346       2.46527699
C        8.35283381      -8.36447027       2.34409384
Br       8.31745096      -9.72585356       1.03119896
C        9.45724062      -8.25061717       3.18911213
C        9.47693764      -7.25411721       4.16473907
C        8.40035225      -6.37598387       4.29330591
O        8.50464767      -5.43195728       5.27994000
C        7.41474105      -4.46093711       5.44004313
C        6.58638590      -4.89704008       6.66642279
C        7.44194587      -4.93004182       7.93379155
N        8.09831984      -3.65127732       8.21744516
C        8.91558143      -3.22631880       7.07657033
C        8.11597871      -3.12786229       5.77841554
N        6.64623259      -4.30121276       4.20582029
N        5.52299770      -3.35269466       4.16919181
H        0.40883018      -2.11006049       3.43950175
H        2.36021089      -3.52572257       4.56671561
H        5.95868638      -4.79746939       1.62301615
H        4.54904881      -5.72156674       2.20818580
H        6.40884989      -7.58848926       1.81344542
H       10.30065451      -8.92704914       3.09702743
H       10.33115582      -7.15236741       4.82819774
H        6.17464322      -5.90238027       6.52103603
H        5.74019875      -4.21621672       6.82485936
H        8.19364651      -5.72670722       7.86764144
H        6.79937488      -5.18182942       8.78479523
H        8.69577900      -3.75405659       9.03409218
H        9.76639802      -3.90746992       6.95453641
H        9.33952566      -2.24155225       7.30470441
H        8.80826860      -2.85088481       4.97215723
H        7.38704584      -2.31278670       5.87732148
C       -0.00445707       0.01189536      -1.78238275
H       -0.66409135       0.67374010      -2.43557963
H        0.65740317      -0.63156657      -2.45157240
C       -0.90989263      -0.90692880      -0.91072765
C        0.90977584       0.90977584      -0.90977584
C       -0.00465871       1.77757030       0.00794375
H       -0.66225468       2.44313916      -0.64384735
H        0.64322798       2.43503045       0.67728295
C       -1.78241447       0.00034974      -0.00472694
H       -2.45427497      -0.65498947       0.64260836
H       -2.43311707       0.67328779      -0.65473579
C       -0.91132561       0.90220522       0.91563759
C       -0.01476271      -0.02253852       1.78660255
H       -0.67934791      -0.69751639       2.42135241
H        0.63392994       0.61504881       2.47327442
C        0.01484550      -1.77751727      -0.01636693
H        0.67870853      -2.42144646      -0.68295456
H       -0.62264859      -2.45592969       0.64226336
C        1.78714474       0.01002794       0.00389507
H        2.44202412       0.67113390       0.66197326
H        2.45385902      -0.65136977      -0.64189061
C        0.91606151      -0.90478549       0.90901405
