170
Properties=species:S:1:pos:R:3 pbc="F F F"
O        8.13954027       5.40758262      -0.64792977
C        6.94354765       5.66886673      -0.55744879
C        6.30703603       6.73597869      -1.44113941
S        5.98387638       6.11352637      -3.11115601
C        4.73999029       4.95775196      -2.82151761
N        4.28304184       4.18885836      -3.85115916
H        4.58602501       4.22868385      -4.81221844
C        3.38039204       3.31216419      -3.32916540
N        2.70872538       2.35932841      -3.99398178
C        1.90550976       1.61043019      -3.18589844
C        1.12446850       0.53760617      -3.89420079
C        1.79653848       1.79653848      -1.79653848
C        2.51490712       2.81943214      -1.16700769
C        3.33322632       3.61174054      -1.97457347
N        4.15383505       4.67656958      -1.67801594
N        6.04121828       5.10767523       0.33212887
C        6.25853842       4.10065839       1.29658173
C        7.48005535       3.42468880       1.40642848
C        7.66294181       2.41622101       2.35721697
C        6.62566039       2.08257110       3.21713196
Br       6.87396692       0.73211360       4.51527378
C        5.40527320       2.74745876       3.13383182
C        5.20250973       3.75506308       2.17194504
C        3.88741003       4.49027677       2.19775307
H        7.00846834       7.57496571      -1.50642670
H        5.38767623       7.13048298      -0.99589105
H        0.05111914       0.66485877      -3.72196344
H        1.43977784      -0.45347279      -3.55441448
H        1.29020981       0.58900142      -4.97560054
H        2.45677972       2.98725168      -0.09994166
H        5.07051321       5.34585444       0.15492574
H        8.31398087       3.64593143       0.74745290
H        8.61970052       1.90396219       2.41169257
H        4.60737848       2.49026255       3.82720561
H        3.48022557       4.63110843       1.19451391
H        4.01683576       5.46710629       2.67401263
H        3.13073393       3.93313220       2.76114919
O       -6.50188147      -0.37909555      -7.31407565
C       -6.57783479      -0.49741422      -6.09461415
C       -7.39689009      -1.62004729      -5.46721675
S       -6.50651028      -3.19695037      -5.50509811
C       -5.21722840      -2.89985990      -4.40217156
N       -4.25051107      -3.84581898      -4.22672930
H       -4.20559450      -4.74976786      -4.67156494
C       -3.32076782      -3.31937762      -3.38157618
N       -2.19009972      -3.90884541      -2.96309045
C       -1.44064348      -3.10958709      -2.15160783
C       -0.16916007      -3.73737961      -1.64973579
C       -1.79653848      -1.79653848      -1.79653848
C       -2.99830946      -1.24636189      -2.25667561
C       -3.79268837      -2.04999768      -3.07685428
N       -5.00595953      -1.81789870      -3.68456236
N       -6.00716791       0.33771850      -5.14731524
C       -5.19072209       1.47187195      -5.34376493
C       -4.74116950       1.85603755      -6.61318372
C       -3.91589769       2.97232293      -6.77837110
C       -3.54188415       3.72335742      -5.67257280
Br      -2.44072818       5.24302383      -5.89310240
C       -3.98444544       3.36707157      -4.40152627
C       -4.80415462       2.23733807      -4.21881123
C       -5.31529209       1.96335531      -2.82799695
H       -8.32043829      -1.72179660      -6.04762585
H       -7.69632749      -1.37487382      -4.44284895
H       -0.14505920      -3.73738442      -0.55549773
H        0.70207797      -3.20281246      -2.03998503
H       -0.09694664      -4.77971726      -1.97814788
H       -3.30006866      -0.23837399      -2.00553041
H       -6.05979292      -0.00747209      -4.19417691
H       -5.00038508       1.29140500      -7.50347932
H       -3.57624201       3.23961487      -7.77534299
H       -3.70061137       3.97605837      -3.54588243
H       -5.24934135       0.90410002      -2.57157876
H       -6.35642513       2.28995114      -2.74345544
H       -4.72699552       2.49911064      -2.07483206
O       -7.57541196       0.42735693       6.19228377
C       -7.41241372       0.74077431       5.01667514
C       -7.92582604       2.07408249       4.48424560
S       -6.82822466       3.44129420       4.93903990
C       -5.42205525       3.08820340       4.00900121
N       -4.30756200       3.86074648       4.15475087
H       -4.20678373       4.66393600       4.75620758
C       -3.33189381       3.31020270       3.37962510
N       -2.06842651       3.74362643       3.24998264
C       -1.31538240       2.95516004       2.43129595
C        0.10573517       3.41319406       2.24881658
C       -1.79653848       1.79653848       1.79653848
C       -3.13064218       1.40775865       1.96294612
C       -3.92824963       2.20722618       2.78406451
N       -5.25182547       2.10732761       3.14926750
N       -6.81421230      -0.02989003       4.03244238
C       -6.22772516      -1.30862964       4.14351956
C       -6.07682739      -1.95508730       5.37657558
C       -5.47344210      -3.21330620       5.46180995
C       -5.02519725      -3.84290927       4.30881154
Br      -4.22470291      -5.55112976       4.41723359
C       -5.17323156      -3.22455956       3.07022812
C       -5.76602591      -1.95161154       2.97121341
C       -5.97168945      -1.38280473       1.59104901
H       -8.91230018       2.25082046       4.92674010
H       -8.07015564       2.04473418       3.39916044
H        0.32558261       3.57467394       1.18885001
H        0.80154421       2.67806285       2.66420088
H        0.27491398       4.36364084       2.76608492
H       -3.53160860       0.52019722       1.49216724
H       -6.64196847       0.45950956       3.15996389
H       -6.40304696      -1.49462355       6.30403600
H       -5.36275183      -3.68515182       6.43437012
H       -4.83602317      -3.73780608       2.17221834
H       -5.70105527      -0.32617473       1.54193955
H       -7.01800065      -1.50056424       1.29249302
H       -5.34583718      -1.89504904       0.85192881
O        3.29845884      -9.03062642       1.86596740
C        2.47664013      -8.29223516       2.40098787
C        2.45157614      -8.11715823       3.91541977
S        3.74758276      -6.98346664       4.47750937
C        3.20420270      -5.48084935       3.83420781
N        3.98352632      -4.36979281       3.96974022
H        4.87414013      -4.31332544       4.43946173
C        3.36328009      -3.35879602       3.29964551
N        3.80328727      -2.09866553       3.16008277
C        2.97882295      -1.32737592       2.39563953
C        3.42965005       0.09739447       2.22401989
C        1.79653848      -1.79653848       1.79653848
C        1.38697455      -3.12010779       1.99426461
C        2.20547395      -3.92736152       2.78670486
N        2.09386816      -5.24500357       3.16954885
N        1.47395356      -7.57643356       1.76637752
C        1.18366577      -7.49094201       0.38800730
C        2.00055444      -8.08173953      -0.58397830
C        1.70192995      -7.96472347      -1.94470757
C        0.57304887      -7.26342019      -2.34536953
Br       0.15601640      -7.11736290      -4.18257255
C       -0.25991067      -6.67586019      -1.39704939
C        0.03636224      -6.77362796      -0.02436242
C       -0.95557076      -6.18823246       0.94727202
H        2.62266766      -9.10077048       4.36642260
H        1.47035284      -7.77903117       4.26466625
H        2.65717388       0.79061638       2.57138385
H        3.66615762       0.30072959       1.17529149
H        4.33176015       0.29107266       2.81412429
H        0.48520444      -3.51387256       1.54489606
H        0.98997451      -6.91083397       2.36063343
H        2.89857299      -8.62973320      -0.31584679
H        2.36032173      -8.42689264      -2.67524424
H       -1.15246654      -6.14639932      -1.72349735
H       -0.46220826      -5.63210684       1.74692151
H       -1.56231311      -6.98670331       1.38553922
H       -1.62899806      -5.48068479       0.45103021
C       -0.00445707       0.01189536      -1.78238275
H       -0.66409135       0.67374010      -2.43557963
H        0.65740317      -0.63156657      -2.45157240
C       -0.90989263      -0.90692880      -0.91072765
C        0.90977584       0.90977584      -0.90977584
C       -0.00465871       1.77757030       0.00794375
H       -0.66225468       2.44313916      -0.64384735
H        0.64322798       2.43503045       0.67728295
C       -1.78241447       0.00034974      -0.00472694
H       -2.45427497      -0.65498947       0.64260836
H       -2.43311707       0.67328779      -0.65473579
C       -0.91132561       0.90220522       0.91563759
C       -0.01476271      -0.02253852       1.78660255
H       -0.67934791      -0.69751639       2.42135241
H        0.63392994       0.61504881       2.47327442
C        0.01484550      -1.77751727      -0.01636693
H        0.67870853      -2.42144646      -0.68295456
H       -0.62264859      -2.45592969       0.64226336
C        1.78714474       0.01002794       0.00389507
H        2.44202412       0.67113390       0.66197326
H        2.45385902      -0.65136977      -0.64189061
C        0.91606151      -0.90478549       0.90901405
