134
Properties=species:S:1:pos:R:3 pbc="F F F"
C        1.79111135       1.79111135      -1.79111135
C        2.25922252       1.30785212      -3.01038005
C        3.06332074       2.11605985      -3.82682823
C        3.40194230       3.41454663      -3.42783459
C        2.92103550       3.88131698      -2.19074401
C        2.11954848       3.07628100      -1.37536347
C        4.24273354       4.36123714      -4.23614290
O        4.40710115       5.50448831      -3.79021125
C        4.88641564       4.00264368      -5.55975622
Cl       5.97414725       2.60423617      -5.39512279
C        3.93802461       3.78952871      -6.71779433
O        2.79297537       3.36665589      -6.55611020
C        4.38305262       4.09113291      -8.12026063
C        3.47885939       3.82793852      -9.16370450
C        3.81024022       4.11660289     -10.49088342
C        5.04994778       4.67509157     -10.78455557
Br       5.49642522       5.08803112     -12.57322647
C        5.96294346       4.93424744      -9.76487674
C        5.63452125       4.63796763      -8.43569168
H        1.99833981       0.30576162      -3.34371154
H        3.38487056       1.69859352      -4.77477966
H        3.16281058       4.88723462      -1.84963187
H        1.75776478       3.46663419      -0.42744485
H        5.53370295       4.85552660      -5.78383474
H        2.50055233       3.39782021      -8.95126104
H        3.09256040       3.90685421     -11.28030412
H        6.93332581       5.37048986      -9.99226407
H        6.38490799       4.85523134      -7.68209514
C       -1.79111135      -1.79111135      -1.79111135
C       -2.82617895      -2.52894840      -1.22232734
C       -3.64301581      -3.33457956      -2.02861346
C       -3.42933953      -3.40457021      -3.41041379
C       -2.37594225      -2.65361052      -3.96354373
C       -1.56031030      -1.85024116      -3.16064149
C       -4.25681727      -4.22418369      -4.35911263
O       -3.99617060      -4.13915336      -5.56647676
C       -5.38928127      -5.13274735      -3.92678693
Cl      -4.82720450      -6.36905043      -2.77725128
C       -6.61955530      -4.44076974      -3.38502261
O       -6.55715095      -3.35975656      -2.79883394
C       -7.97222012      -5.07251529      -3.54971075
C       -9.07573321      -4.41111324      -2.98365597
C      -10.36953294      -4.92105314      -3.12714045
C      -10.57003714      -6.09716591      -3.84239187
Br     -12.31787647      -6.78078400      -4.05902234
C       -9.48767698      -6.77184558      -4.40254508
C       -8.19017126      -6.26555881      -4.25245050
H       -3.01576566      -2.47976332      -0.15228400
H       -4.44676159      -3.87307378      -1.53840837
H       -2.18224723      -2.68227827      -5.03515158
H       -0.75781646      -1.27655201      -3.61747535
H       -5.65997507      -5.67661063      -4.83647858
H       -8.93814429      -3.48477309      -2.42671620
H      -11.20749807      -4.38949631      -2.68272435
H       -9.64204353      -7.69215358      -4.96188263
H       -7.38359047      -6.83406286      -4.70458114
C       -1.79111135       1.79111135       1.79111135
C       -1.52871461       1.89385635       3.15488373
C       -2.33106848       2.70763843       3.96750191
C       -3.40035832       3.42541360       3.41855161
C       -3.64961903       3.30432645       2.03915101
C       -2.85065270       2.49279859       1.22774166
C       -4.30639903       4.33345058       4.20026397
O       -5.17131749       4.95825563       3.57222759
C       -4.21549347       4.53430463       5.69901744
Cl      -4.40449499       2.99603317       6.57297805
C       -2.98743847       5.26489841       6.19301078
O       -1.90878261       5.20469133       5.60226751
C       -3.05709231       6.09363491       7.44371893
C       -1.87412493       6.71099451       7.88538298
C       -1.87042371       7.52602695       9.02127587
C       -3.05329745       7.73283307       9.72346440
Br      -3.06062633       8.85030006      11.24675642
C       -4.23369167       7.12185182       9.30652415
C       -4.23641535       6.29879713       8.17296809
H       -0.69587190       1.35299211       3.59894898
H       -2.07168418       2.76767789       5.01888167
H       -4.47171601       3.85019054       1.57777053
H       -3.06397113       2.42387819       0.16399450
H       -5.10261538       5.12495140       5.94549750
H       -0.94011642       6.56625787       7.34325929
H       -0.94322142       7.99520908       9.34128823
H       -5.15989235       7.28171095       9.85447644
H       -5.18225112       5.84392900       7.89605435
C        1.79111135      -1.79111135       1.79111135
C        1.76914770      -3.17459491       1.63371208
C        2.58208630      -3.98808085       2.43604167
C        3.42388893      -3.42048069       3.39995391
C        3.42773023      -2.02096013       3.54440614
C        2.61721690      -1.20860413       2.74537192
C        4.34127581      -4.20312324       4.29571454
O        5.07998628      -3.56474008       5.05707435
C        4.42062353      -5.71583441       4.31235760
Cl       2.84143621      -6.44483542       4.68723458
C        5.00945131      -6.35877937       3.07711698
O        4.90621590      -5.84800299       1.96152257
C        5.74456542      -7.66404326       3.18583748
C        6.22847214      -8.24236092       1.99966936
C        6.95263599      -9.43792562       2.02716492
C        7.20166456     -10.06355569       3.24437467
Br       8.19812249     -11.66793846       3.29162186
C        6.72202540      -9.51052264       4.42951960
C        5.98963321      -8.31670034       4.40184702
H        1.13032670      -3.63456643       0.88291985
H        2.54145013      -5.05739400       2.25939961
H        4.07194857      -1.54499681       4.28273170
H        2.64620501      -0.12974522       2.87589360
H        5.06134245      -5.94211386       5.16960797
H        6.04935310      -7.76212456       1.03815592
H        7.31927934      -9.86400999       1.09642939
H        6.91509851      -9.99837169       5.38260953
H        5.63548824      -7.93321162       5.35353461
C       -0.00445707       0.01189536      -1.78238275
H       -0.66409135       0.67374010      -2.43557963
H        0.65740317      -0.63156657      -2.45157240
C       -0.90989263      -0.90692880      -0.91072765
C        0.90977584       0.90977584      -0.90977584
C       -0.00465871       1.77757030       0.00794375
H       -0.66225468       2.44313916      -0.64384735
H        0.64322798       2.43503045       0.67728295
C       -1.78241447       0.00034974      -0.00472694
H       -2.45427497      -0.65498947       0.64260836
H       -2.43311707       0.67328779      -0.65473579
C       -0.91132561       0.90220522       0.91563759
C       -0.01476271      -0.02253852       1.78660255
H       -0.67934791      -0.69751639       2.42135241
H        0.63392994       0.61504881       2.47327442
C        0.01484550      -1.77751727      -0.01636693
H        0.67870853      -2.42144646      -0.68295456
H       -0.62264859      -2.45592969       0.64226336
C        1.78714474       0.01002794       0.00389507
H        2.44202412       0.67113390       0.66197326
H        2.45385902      -0.65136977      -0.64189061
C        0.91606151      -0.90478549       0.90901405
