158
Properties=species:S:1:pos:R:3 pbc="F F F"
O        7.40103799       0.40222303      -6.25434366
C        7.27781854       0.71562796      -5.07437921
C        7.87730631       2.01048966      -4.53686188
S        6.83258970       3.44043715      -4.92224824
C        5.42719356       3.10488080      -3.98443384
N        4.30759937       3.86665657      -4.14916347
H        4.20267026       4.65800566      -4.76460569
C        3.32920823       3.31249200      -3.37823531
N        2.05858173       3.72859786      -3.27255807
C        1.30535202       2.93797057      -2.45619667
C       -0.12456497       3.37864332      -2.29977730
C        1.79651464       1.79651464      -1.79651464
C        3.13939813       1.42558939      -1.93730815
C        3.93324193       2.22618902      -2.76021379
N        5.26066848       2.13665108      -3.11040051
N        6.64126261      -0.02500800      -4.09274504
C        5.99475378      -1.26760441      -4.21282913
C        5.85316403      -1.96436141      -5.41397892
C        5.17913035      -3.19088658      -5.44397838
C        4.66129521      -3.72996683      -4.26885885
Br       3.76298472      -5.39181376      -4.30980062
C        4.80289929      -3.05053941      -3.06285031
C        5.46157770      -1.81916930      -3.03938041
H        8.85510528       2.14768437      -5.01079396
H        8.05646726       1.94828894      -3.45850739
H       -0.34626738       3.59403360      -1.24985709
H       -0.80833600       2.61070618      -2.67370297
H       -0.31136526       4.29534503      -2.86971926
H        3.55305225       0.55219625      -1.44978239
H        6.48510750       0.46603600      -3.21316334
H        6.23774005      -1.57042907      -6.34956214
H        5.06558236      -3.71128926      -6.39138429
H        4.40954448      -3.46780940      -2.13994754
H        5.56952184      -1.30390924      -2.08799352
O       -5.84075464      -0.49032923      -7.72652081
C       -6.04212575      -0.50947047      -6.51622949
C       -7.04859269      -1.47541970      -5.90064547
S       -6.34918740      -3.13645860      -5.70962909
C       -5.12342356      -2.86224366      -4.53084098
N       -4.22665774      -3.85014809      -4.24661358
H       -4.20602510      -4.77699918      -4.64225732
C       -3.31505523      -3.32595115      -3.37892916
N       -2.24148616      -3.94824545      -2.87000605
C       -1.49140068      -3.14349951      -2.06461907
C       -0.28373357      -3.80811787      -1.46200421
C       -1.79651464      -1.79651464      -1.79651464
C       -2.94289155      -1.21137158      -2.34803254
C       -3.73261096      -2.01904082      -3.16799297
N       -4.89421591      -1.75664776      -3.85685640
N       -5.44843558       0.31380857      -5.57437264
C       -4.49496457       1.32770727      -5.77272121
C       -3.94084172       1.65054137      -7.01248119
C       -2.98360403       2.66675700      -7.11537511
C       -2.59271764       3.37290117      -5.98037075
Br      -1.30981294       4.75273122      -6.12388986
C       -3.14339740       3.06769823      -4.73951101
C       -4.08604187       2.04213790      -4.63788485
H       -7.91273713      -1.52948809      -6.57135838
H       -7.41926160      -1.10453585      -4.93946613
H       -0.34071305      -3.78770709      -0.36920317
H        0.63461321      -3.31547144      -1.79521492
H       -0.22694002      -4.85833203      -1.76842698
H       -3.20865496      -0.17750646      -2.16886947
H       -5.60362960       0.04320117      -4.60387841
H       -4.21683191       1.11609699      -7.91613820
H       -2.55223687       2.89344188      -8.08688239
H       -2.85058010       3.61919431      -3.85029682
H       -4.51159635       1.82020545      -3.66221522
O       -0.42984315       6.10280620       7.52495533
C       -0.76551830       4.93281705       7.36949036
C       -2.08423738       4.41093412       7.92948635
S       -3.48262928       4.84942794       6.86321786
C       -3.13663511       3.93464246       5.44523063
N       -3.87022959       4.13965607       4.31353374
H       -4.64584542       4.77423928       4.20519691
C       -3.31145715       3.37784945       3.33062895
N       -3.70201025       3.30828236       2.04944505
C       -2.91274276       2.49113758       1.29563892
C       -3.32546944       2.37477297      -0.14638677
C       -1.79651464       1.79651464       1.79651464
C       -1.45194448       1.90062686       3.14972433
C       -2.25192298       2.72366585       3.94405591
N       -2.18382139       3.04351706       5.28038162
N       -0.03226867       3.94908098       6.72765000
C        1.22635406       4.05585914       6.11047342
C        1.95140826       5.24432578       6.00986402
C        3.19264955       5.26199547       5.36287622
C        3.71774260       4.08671818       4.83121165
Br       5.39921011       4.11063594       3.96954574
C        3.00990633       2.89301820       4.93209832
C        1.76429483       2.88230685       5.56377679
H       -2.23253557       4.86683479       8.91421324
H       -2.04888973       3.32791671       8.08645714
H       -3.55827001       1.33473260      -0.39537929
H       -2.53507891       2.74638099      -0.80538675
H       -4.22556865       2.96834158      -0.34021121
H       -0.59831020       1.38555321       3.57116748
H       -0.53839742       3.08389578       6.54201365
H        1.56919761       6.17985759       6.40621314
H        3.73542572       6.20007097       5.28103214
H        3.41590425       1.96984060       4.52774626
H        1.22669601       1.94025965       5.64004248
O        0.35167020      -6.80841691       6.89751756
C        0.57262317      -5.60140086       6.89380168
C        1.76650872      -5.01716445       7.64098468
S        3.30115531      -5.19981545       6.69430433
C        2.99809453      -4.17535859       5.34305507
N        3.85616814      -4.18464551       4.28260576
H        4.70258903      -4.72531257       4.19738000
C        3.31675767      -3.37921391       3.32396396
N        3.82034241      -3.13408544       2.10530981
C        3.02461469      -2.32106435       1.35384023
C        3.56073970      -2.01011604      -0.01700010
C        1.79651464      -1.79651464       1.79651464
C        1.33514371      -2.07912074       3.08803122
C        2.13816092      -2.90130536       3.88017846
N        1.97525310      -3.36863087       5.16383610
N       -0.19656003      -4.63019106       6.27536862
C       -1.37022866      -4.79170938       5.51849779
C       -1.94951025      -6.02726131       5.22503049
C       -3.11269904      -6.09570786       4.44921332
C       -3.70733322      -4.92662467       3.98089578
Br      -5.28450674      -5.02092439       2.94455393
C       -3.14567862      -3.68760058       4.27328823
C       -1.97592500      -3.62396068       5.03375314
H        1.86660647      -5.56008297       8.58689416
H        1.59935910      -3.96602963       7.89787486
H        3.70303930      -0.93158564      -0.13700163
H        2.88298775      -2.38356862      -0.79048322
H        4.53421499      -2.48886150      -0.16937746
H        0.39396041      -1.69808384       3.46298663
H        0.22887351      -3.70489707       6.23053626
H       -1.50895027      -6.95844425       5.56737914
H       -3.54049139      -7.06781307       4.21835571
H       -3.60766093      -2.77009186       3.91925168
H       -1.55314083      -2.64782768       5.25891928
C       -0.00445707       0.01189536      -1.78238275
H       -0.66409135       0.67374010      -2.43557963
H        0.65740317      -0.63156657      -2.45157240
C       -0.90989263      -0.90692880      -0.91072765
C        0.90977584       0.90977584      -0.90977584
C       -0.00465871       1.77757030       0.00794375
H       -0.66225468       2.44313916      -0.64384735
H        0.64322798       2.43503045       0.67728295
C       -1.78241447       0.00034974      -0.00472694
H       -2.45427497      -0.65498947       0.64260836
H       -2.43311707       0.67328779      -0.65473579
C       -0.91132561       0.90220522       0.91563759
C       -0.01476271      -0.02253852       1.78660255
H       -0.67934791      -0.69751639       2.42135241
H        0.63392994       0.61504881       2.47327442
C        0.01484550      -1.77751727      -0.01636693
H        0.67870853      -2.42144646      -0.68295456
H       -0.62264859      -2.45592969       0.64226336
C        1.78714474       0.01002794       0.00389507
H        2.44202412       0.67113390       0.66197326
H        2.45385902      -0.65136977      -0.64189061
C        0.91606151      -0.90478549       0.90901405
