113
Properties=species:S:1:pos:R:3 pbc="F F F"
C        0.00000000       0.00000000       0.00000000
C        0.88117249       0.88117249      -0.88117249
C        1.78184337       0.29817001      -1.76577476
C        2.58612665       1.11209773      -2.57091614
C        2.50348103       2.51436758      -2.50593534
C        1.58761988       3.07665748      -1.60409939
C        0.78028148       2.26640459      -0.79609393
C        3.37277103       3.31514009      -3.37663884
N        4.27881190       2.83098641      -4.22925888
N        4.90918325       3.88123900      -4.88401784
C        4.36438249       4.95887158      -4.40708383
S        4.51909265       6.64239478      -4.63565014
C        3.24137491       6.80481244      -3.41450255
N        2.74698128       5.71695040      -2.88632947
N        3.41506681       4.68805730      -3.47987915
C        2.79716449       8.12029822      -3.05155189
C        1.83325366       8.52735799      -2.14509849
C        1.80188922       9.94249594      -2.18500763
C        2.74617716      10.31847167      -3.11111096
O        3.35282900       9.22403159      -3.63990282
H        1.86998922      -0.78262195      -1.84070238
H        3.28617395       0.63737189      -3.25856608
H        1.47633989       4.15246268      -1.50314114
H        0.07901916       2.72902057      -0.10633942
H        1.22774393       7.87341914      -1.53115677
H        1.16805984      10.60329632      -1.60879573
C        3.05553339      11.67670200      -3.47595211
C        3.31461923      12.81421991      -3.78150659
Br       3.73353912      14.65349016      -4.27556232
C       -0.88117249      -0.88117249      -0.88117249
C       -0.40465443      -2.10617407      -1.33495964
C       -1.21811883      -2.90904616      -2.14197554
C       -2.51429575      -2.50326227      -2.50622593
C       -2.96989520      -1.26244289      -2.03603867
C       -2.15965850      -0.45515380      -1.22796771
C       -3.32064042      -3.38952394      -3.35438560
N       -2.92461166      -4.56397608      -3.85046945
N       -3.95075404      -5.12091245      -4.60277360
C       -4.92721681      -4.26796827      -4.53515282
S       -6.51841616      -4.14147805      -5.13724336
C       -6.58991673      -2.58684464      -4.28392853
N       -5.53634221      -2.19688411      -3.61703483
N       -4.61218901      -3.18398687      -3.78682737
C       -7.79799693      -1.81549789      -4.35551978
C       -8.11960055      -0.59130433      -3.79480526
C       -9.44780859      -0.29516842      -4.18641579
C       -9.86091942      -1.35256260      -4.96227776
O       -8.87051853      -2.27609743      -5.07014745
H        0.59241146      -2.44933310      -1.07114802
H       -0.82780633      -3.86619995      -2.48810565
H       -3.95973260      -0.88932184      -2.28288927
H       -2.53840877       0.50154704      -0.87751743
H       -7.46673616       0.01093276      -3.17651643
H      -10.02893154       0.58134282      -3.93256318
C      -11.15727106      -1.47344845      -5.57746799
C      -12.24296556      -1.57469035      -6.09268981
Br     -13.99844175      -1.73838994      -6.92575992
C       -0.88117249       0.88117249       0.88117249
C       -1.51033836       1.99644283       0.33900695
C       -2.31712063       2.79946110       1.15255879
C       -2.50774902       2.50230930       2.51372563
C       -1.86045018       1.37230537       3.03562121
C       -1.05195943       0.56527894       2.22554164
C       -3.36660031       3.38188143       3.31606823
N       -3.98087279       4.48238511       2.87579929
N       -4.70740594       5.05544592       3.91158823
C       -4.50849339       4.28464858       4.93719593
S       -4.99878138       4.22811116       6.57024503
C       -4.02451175       2.74915695       6.68702121
N       -3.39487371       2.33588623       5.61950121
N       -3.69771989       3.23973978       4.64554358
C       -3.96290556       2.06114938       7.94495966
C       -3.29137993       0.90628830       8.30804192
C       -3.57888361       0.67529012       9.67521907
C       -4.40745557       1.69970463      10.06859958
O       -4.64492084       2.54215389       9.02968868
H       -1.38403046       2.25356831      -0.70952912
H       -2.80250748       3.66948451       0.71011993
H       -1.96393201       1.08888752       4.07912418
H       -0.56261231      -0.30451671       2.65628355
H       -2.66930551       0.30641978       7.65659455
H       -3.22443067      -0.13827735      10.29399857
C       -4.95173148       1.86496027      11.39149576
C       -5.40756256       2.00336186      12.49942131
Br      -6.14460286       2.22714553      14.29084322
C        0.88117249      -0.88117249       0.88117249
C        0.33736949      -1.99244530       1.51597336
C        1.15117869      -2.79609185       2.32186998
C        2.51450248      -2.50420582       2.50507564
C        3.03738008      -1.37659931       1.85439736
C        2.22708926      -0.56905715       1.04663359
C        3.31747510      -3.38531602       3.36175885
N        2.86311295      -4.45141398       4.02453026
N        3.90586011      -5.04146187       4.72711811
C        4.94972292      -4.31523071       4.46538426
S        6.60321641      -4.30860411       4.88531706
C        6.73499481      -2.86627477       3.85942032
N        5.65786596      -2.42954599       3.26284919
N        4.66365206      -3.28394795       3.63540324
C        8.01523751      -2.23271851       3.72105857
C        8.39378133      -1.11560369       2.99632512
C        9.78075842      -0.93294305       3.21569133
C       10.16957373      -1.94621256       4.05997349
O        9.10932842      -2.73657819       4.37085679
H       -0.71263945      -2.24597508       1.39473402
H        0.70754993      -3.66321037       2.81135163
H        4.08136342      -1.09435418       1.95622611
H        2.65875648       0.29847956       0.55410224
H        7.73969194      -0.50928521       2.38334268
H       10.41523827      -0.15770481       2.80720881
C       11.50807222      -2.14955808       4.55055721
C       12.62906471      -2.31985995       4.96142106
Br      14.44161476      -2.59522368       5.62575317
