134
Properties=species:S:1:pos:R:3 pbc="F F F"
C        1.79107652       1.79107652      -1.79107652
C        2.69174740       1.20807403      -2.67567878
C        3.49603068       2.02200175      -3.48082017
C        3.41338505       3.42427160      -3.41583936
C        2.49752390       3.98656150      -2.51400342
C        1.69018551       3.17630861      -1.70599796
C        4.28267506       4.22504412      -4.28654286
N        5.18871593       3.74089044      -5.13916290
N        5.81908727       4.79114303      -5.79392186
C        5.27428651       5.86877560      -5.31698785
S        5.42899668       7.55229880      -5.54555417
C        4.15127893       7.71471647      -4.32440657
N        3.65688530       6.62685442      -3.79623350
N        4.32497083       5.59796132      -4.38978317
C        3.70706851       9.03020224      -3.96145592
C        2.74315768       9.43726202      -3.05500251
C        2.71179325      10.85239997      -3.09491166
C        3.65608118      11.22837569      -4.02101498
O        4.26273302      10.13393561      -4.54980684
H        2.77989324       0.12728208      -2.75060641
H        4.19607797       1.54727592      -4.16847011
H        2.38624392       5.06236670      -2.41304517
H        0.98892319       3.63892459      -1.01624345
H        2.13764796       8.78332316      -2.44106079
H        2.07796387      11.51320035      -2.51869975
C        3.96543741      12.58660603      -4.38585614
C        4.22452325      13.72412394      -4.69141061
Br       4.64344315      15.56339419      -5.18546635
C       -1.79107652      -1.79107652      -1.79107652
C       -1.34194401      -3.04592544      -2.18763077
C       -2.15525962      -3.84858928      -2.99500369
C       -3.42408946      -3.41290318      -3.41650338
C       -3.85232834      -2.14238499      -3.00337549
C       -3.04212079      -1.33516653      -2.19520476
C       -4.23178244      -4.30050254      -4.26197706
N       -3.85992562      -5.50364574      -4.70519791
N       -4.87908747      -6.05176073      -5.47330396
C       -5.82755445      -5.16522827      -5.46726725
S       -7.39275773      -5.00690093      -6.12719099
C       -7.43926574      -3.42252254      -5.32861369
N       -6.39558442      -3.04501728      -4.63937152
N       -5.50057557      -4.06731863      -4.74482111
C       -8.61727843      -2.61460139      -5.46684685
C       -8.91522961      -1.36202337      -4.95816924
C      -10.21889526      -1.03573812      -5.40447149
C      -10.64202932      -2.10479225      -6.15865029
O       -9.68072148      -3.06367032      -6.20208367
H       -0.36643264      -3.41261076      -1.87873833
H       -1.78664365      -4.82937006      -3.29581028
H       -4.82015628      -1.74543097      -3.29606854
H       -3.39934569      -0.35507244      -1.88967310
H       -8.26295239      -0.76090981      -4.33816971
H      -10.77781314      -0.13235955      -5.19969128
C      -11.92073256      -2.20374469      -6.81342232
C      -12.99164653      -2.28661736      -7.36179391
Br     -14.72322384      -2.42061546      -8.24846437
C       -1.79107652       1.79107652       1.79107652
C       -2.41810361       2.90785617       1.24954043
C       -3.22489947       3.71086571       2.06308741
C       -3.41766777       3.41220562       3.42362262
C       -2.77250056       2.28069514       3.94489313
C       -1.96400587       1.47367075       3.13481545
C       -4.27641940       4.29185057       4.22599206
N       -4.88870372       5.39371300       3.78635256
N       -5.61583394       5.96637536       4.82194287
C       -5.41923941       5.19400028       5.84681028
S       -5.91170758       5.13599049       7.47915158
C       -4.93949703       3.65563050       7.59527445
N       -4.30901478       3.24292395       6.52803449
N       -4.60943790       4.14842260       5.55485482
C       -4.88040182       2.96592277       8.85240209
C       -4.21083488       1.80972864       9.21485869
C       -4.50040079       1.57733938      10.58136471
C       -5.32815847       2.60231463      10.97499875
O       -5.56319610       3.44640843       9.93687095
H       -2.29011088       3.16616998       0.20150087
H       -3.70859271       4.58208467       1.62114662
H       -2.87769467       1.99606603       4.98789509
H       -1.47633698       0.60268953       3.56506472
H       -3.58869392       1.20989795       8.56344003
H       -4.14779609       0.76251795      11.19954992
C       -5.87392815       2.76656707      12.29740436
C       -6.33101025       2.90412849      13.40491906
Br      -7.07007335       3.12655367      15.19567666
C        1.79107652      -1.79107652       1.79107652
C        1.80929104      -1.59815400       3.16805518
C        2.61906271      -2.40999699       3.96979290
C        3.41909158      -3.42280733       3.41159710
C        3.38305474      -3.59528230       2.01975179
C        2.57419191      -2.78541543       1.21288474
C        4.24691983      -4.24288388       4.30445833
N        4.33872335      -4.10127808       5.62876784
N        5.21230451      -5.05300878       6.13883887
C        5.61594708      -5.73417305       5.10992984
S        6.66111356      -7.05003250       4.81570359
C        6.22647885      -6.85833283       3.10559029
N        5.38810055      -5.91013671       2.78173596
N        5.06533304      -5.29380366       3.95357862
C        6.80843613      -7.74838593       2.14190461
C        6.64593236      -7.82049193       0.76899792
C        7.45662396      -8.88859497       0.31388594
C        8.06684935      -9.40679068       1.43183182
O        7.68128046      -8.72402980       2.54116521
H        1.20236198      -0.82435927       3.63106048
H        2.62027356      -2.24433155       5.04721889
H        3.97866076      -4.35746837       1.52552665
H        2.56553983      -2.94137378       0.13717762
H        6.01421919      -7.17455444       0.17325828
H        7.57847116      -9.23510320      -0.70371039
C        8.98553806     -10.51565827       1.43670325
C        9.75493986     -11.44433487       1.44078307
Br      10.99899749     -12.94592639       1.44737980
C       -0.00445707       0.01189536      -1.78238275
H       -0.66409135       0.67374010      -2.43557963
H        0.65740317      -0.63156657      -2.45157240
C       -0.90989263      -0.90692880      -0.91072765
C        0.90977584       0.90977584      -0.90977584
C       -0.00465871       1.77757030       0.00794375
H       -0.66225468       2.44313916      -0.64384735
H        0.64322798       2.43503045       0.67728295
C       -1.78241447       0.00034974      -0.00472694
H       -2.45427497      -0.65498947       0.64260836
H       -2.43311707       0.67328779      -0.65473579
C       -0.91132561       0.90220522       0.91563759
C       -0.01476271      -0.02253852       1.78660255
H       -0.67934791      -0.69751639       2.42135241
H        0.63392994       0.61504881       2.47327442
C        0.01484550      -1.77751727      -0.01636693
H        0.67870853      -2.42144646      -0.68295456
H       -0.62264859      -2.45592969       0.64226336
C        1.78714474       0.01002794       0.00389507
H        2.44202412       0.67113390       0.66197326
H        2.45385902      -0.65136977      -0.64189061
C        0.91606151      -0.90478549       0.90901405
