113
Properties=species:S:1:pos:R:3 pbc="F F F"
C        0.00000000       0.00000000       0.00000000
C        0.88181429       0.88181429      -0.88181429
C        1.75155857       1.79649947      -0.29550058
C        2.55817482       2.60452470      -1.10491009
C        2.49785622       2.50975750      -2.50424210
C        1.61279290       1.58213622      -3.07289365
C        0.81046624       0.76813279      -2.26617617
C        3.31962347       3.37903334      -3.34906720
N        3.55705537       4.69206148      -3.03916375
H        3.21355483       5.20534457      -2.23426840
N        4.32009571       5.35109358      -3.91900073
C        4.57874650       4.44642424      -4.87899976
C        5.37438788       4.83030724      -6.04847830
C        6.49466653       5.66202214      -5.88920168
C        7.25374870       6.05891149      -6.99404708
C        6.89236782       5.62960947      -8.26790624
Br       7.91150070       6.16896271      -9.76545268
C        5.77808302       4.81227962      -8.44750145
C        5.01909915       4.41803705      -7.34020594
C        3.99256351       3.18661520      -4.54514279
Cl       4.14821807       1.73689187      -5.42450255
H        1.81442682       1.88709286       0.78573003
H        3.24392650       3.29536907      -0.61915342
H        1.52348951       1.48812127      -4.15222646
H        0.13456328       0.05555039      -2.73147912
H        6.77682929       6.01103673      -4.89737438
H        8.11525876       6.70470763      -6.84701055
H        5.48565415       4.48387992      -9.44138239
H        4.13754436       3.80388444      -7.50688051
C       -0.88181429      -0.88181429      -0.88181429
C       -0.31890075      -1.94858701      -1.57607086
C       -1.12807001      -2.75505071      -2.38448889
C       -2.50255866      -2.49881614      -2.51048102
C       -3.04754579      -1.41738981      -1.80288718
C       -2.24244229      -0.61387640      -0.98845651
C       -3.34071260      -3.32473330      -3.38227812
N       -2.90127208      -3.79584580      -4.59116271
H       -1.99370263      -3.64180695      -5.01765822
N       -3.79235103      -4.52794416      -5.26989483
C       -4.89025315      -4.51956472      -4.49435263
C       -6.10601771      -5.20427996      -4.94287574
C       -6.01016960      -6.44824327      -5.58747748
C       -7.15538904      -7.10754036      -6.04377788
C       -8.40524844      -6.52225393      -5.86238115
Br      -9.95586638      -7.40654106      -6.48350864
C       -8.52003074      -5.28367787      -5.23415547
C       -7.37207944      -4.62519629      -4.78006640
C       -4.63934144      -3.79885166      -3.28612840
Cl      -5.71391540      -3.61790715      -1.97778993
H        0.74295178      -2.16512663      -1.49361480
H       -0.66519968      -3.59464294      -2.89860637
H       -4.10400019      -1.17467861      -1.88515843
H       -2.68959532       0.21666994      -0.44866741
H       -5.03521927      -6.90694837      -5.74307276
H       -7.05681393      -8.06830761      -6.54185539
H       -9.49275204      -4.81775275      -5.10041167
H       -7.48274106      -3.64699211      -4.31857613
C       -0.88181429       0.88181429       0.88181429
C       -1.56001124       0.32270135       1.96084602
C       -2.36845581       1.13185124       2.76730257
C       -2.51051685       2.50244422       2.49889474
C       -1.81895018       3.04361819       1.40525441
C       -1.00450486       2.23862161       0.60164872
C       -3.38243038       3.34014827       3.32514536
N       -4.58225063       2.89358038       3.81244959
H       -5.00124780       1.98040615       3.67151385
N       -5.26255807       3.78516588       4.54246607
C       -4.49801617       4.89046391       4.51569042
C       -4.95180701       6.10848711       5.19287930
C       -5.58323400       6.01863012       6.44402623
C       -6.04435322       7.16578790       7.09656616
C       -5.88104230       8.41152003       6.49732120
Br      -6.50877622       9.96464728       7.37249259
C       -5.26612410       8.52020243       5.25153756
C       -4.80718104       7.37029948       4.59986162
C       -3.29447903       4.64427463       3.78556784
Cl      -1.99864959       5.72975311       3.58120978
H       -1.46495803      -0.73610354       2.18693516
H       -2.86974096       0.67228983       3.61641820
H       -1.91402124       4.09676880       1.15304719
H       -0.47730687       2.68280764      -0.23852172
H       -5.72469906       5.04678267       6.91375867
H       -6.53201283       7.07184019       8.06312391
H       -5.14655700       9.48953606       4.77482340
H       -4.35639503       7.47580250       3.61611176
C        0.88181429      -0.88181429       0.88181429
C        2.22724308      -0.56749341       1.04882213
C        3.03418453      -1.37708887       1.85633623
C        2.50578513      -2.50877579       2.49729489
C        1.14771554      -2.80696591       2.31314133
C        0.33704502      -1.99547747       1.51225271
C        3.35993669      -3.37211800       3.31566932
N        4.65258269      -3.66557805       2.97011985
H        5.15728090      -3.34567638       2.15021051
N        5.29435160      -4.47607294       3.81976548
C        4.37878976      -4.76466600       4.76071475
C        4.72099549      -5.67487343       5.85730450
C        5.98772805      -5.59933806       6.45882424
C        6.34285964      -6.47320755       7.49064008
C        5.43281155      -7.43334291       7.92372907
Br       5.91070772      -8.62141427       9.31379410
C        4.17470535      -7.53070213       7.33245661
C        3.82254914      -6.65602763       6.29876537
C        3.15898709      -4.06851005       4.49682436
Cl       1.76775717      -4.06337287       5.47848245
H        2.65760010       0.30360988       0.56179944
H        4.07694381      -1.09546647       1.98603870
H        0.70258496      -3.68283940       2.77841286
H       -0.71288796      -2.24691286       1.38756789
H        6.70888484      -4.85852426       6.11783130
H        7.32951688      -6.39772924       7.93973082
H        3.46513599      -8.28606528       7.65971520
H        2.84668496      -6.76877679       5.83284755
