134
Properties=species:S:1:pos:R:3 pbc="F F F"
C        1.79171832       1.79171832      -1.79171832
C        2.66146260       2.70640349      -1.20540460
C        3.46807885       3.51442873      -2.01481412
C        3.40776024       3.41966152      -3.41414612
C        2.52269693       2.49204025      -3.98279768
C        1.72037026       1.67803682      -3.17608019
C        4.22952749       4.28893737      -4.25897122
N        4.46695939       5.60196550      -3.94906777
H        4.12345885       6.11524860      -3.14417243
N        5.22999973       6.26099760      -4.82890476
C        5.48865052       5.35632827      -5.78890379
C        6.28429191       5.74021126      -6.95838232
C        7.40457055       6.57192617      -6.79910571
C        8.16365273       6.96881551      -7.90395111
C        7.80227185       6.53951349      -9.17781026
Br       8.82140473       7.07886673     -10.67535670
C        6.68798704       5.72218365      -9.35740547
C        5.92900317       5.32794107      -8.25010996
C        4.90246753       4.09651923      -5.45504682
Cl       5.05812209       2.64679589      -6.33440657
H        2.72433085       2.79699688      -0.12417399
H        4.15383052       4.20527309      -1.52905745
H        2.43339353       2.39802529      -5.06213048
H        1.04446730       0.96545441      -3.64138314
H        7.68673331       6.92094076      -5.80727840
H        9.02516278       7.61461165      -7.75691457
H        6.39555817       5.39378395     -10.35128642
H        5.04744838       4.71378847      -8.41678453
C       -1.79171832      -1.79171832      -1.79171832
C       -1.82012935      -1.58538292      -3.16775842
C       -2.62944940      -2.39357130      -3.97430099
C       -3.42026832      -3.40849699      -3.41280257
C       -3.37686852      -3.59702107      -2.02364526
C       -2.56339507      -2.79533789      -1.21575430
C       -4.29050536      -4.23143128      -4.25549944
N       -4.98334132      -3.71584992      -5.31880143
H       -4.98734877      -2.75400665      -5.64152446
N       -5.74068702      -4.59825882      -5.98095626
C       -5.57244976      -5.75105684      -5.31037598
C       -6.29238941      -6.95472518      -5.73577090
C       -6.43420806      -7.23735858      -7.10403579
C       -7.13686253      -8.36768889      -7.53186793
C       -7.70763034      -9.22055399      -6.59141127
Br      -8.66426095     -10.74632885      -7.16503836
C       -7.58652101      -8.95159312      -5.22946203
C       -6.88429253      -7.81866470      -4.80409698
C       -4.64675136      -5.57053803      -4.23674418
Cl      -4.06673374      -6.78215552      -3.19043529
H       -1.21638911      -0.80521824      -3.62389437
H       -2.61564209      -2.22376226      -5.04875671
H       -3.98567772      -4.36105949      -1.54681210
H       -2.54583735      -2.96330692      -0.14216059
H       -6.00030555      -6.56893377      -7.84571315
H       -7.23570093      -8.56510409      -8.59588399
H       -8.04006153      -9.60856571      -4.49200129
H       -6.82690578      -7.61311341      -3.73800218
C       -1.79171832       1.79171832       1.79171832
C       -1.80712064       1.59655576       3.16959429
C       -2.61645413       2.40472122       3.97614634
C       -3.42023217       3.40843599       3.41289973
C       -3.38980233       3.58580291       2.02192960
C       -2.57638066       2.78416515       1.21394145
C       -4.29030372       4.23114549       4.25598687
N       -4.97009346       3.71871332       5.32918589
H       -4.96348778       2.75957433       5.65981776
N       -5.72925615       4.60032565       5.99032030
C       -5.57608029       5.74887502       5.30892727
C       -6.30244316       6.95007197       5.73037036
C       -6.43535736       7.24284941       7.09739565
C       -7.14380905       8.37087543       7.52173487
C       -7.72932085       9.21121008       6.57906467
Br      -8.69380815      10.73377540       7.14804460
C       -7.61717590       8.93198647       5.21841378
C       -6.90910840       7.80137946       4.79656635
C       -4.65776583       5.56708082       4.22918692
Cl      -4.09640964       6.77471614       3.16819877
H       -1.19321726       0.82517767       3.62710680
H       -2.59241967       2.24393240       5.05180899
H       -4.00881077       4.34084286       1.54389567
H       -2.56902992       2.94337876       0.13889619
H       -5.98986068       6.58417305       7.84091873
H       -7.23553857       8.57627452       8.58487591
H       -8.08217983       9.57908507       4.47936364
H       -6.85877743       7.58748726       3.73175669
C        1.79171832      -1.79171832       1.79171832
C        2.64618148      -2.72107745       1.20601176
C        3.45281198      -3.52907438       2.01543534
C        3.40770530      -3.41959592       3.41426667
C        2.53787521      -2.47732407       3.98233557
C        1.73562155      -1.66336611       3.17549962
C        4.22922842      -4.28863445       4.25957321
N        4.45024331      -5.60706985       3.96067951
H        4.09340679      -6.12491631       3.16455677
N        5.21552158      -6.26493520       4.83944531
C        5.49304216      -5.35331499       5.78752543
C        6.29664154      -5.73347160       6.95277236
C        7.40679859      -6.57811537       6.79068847
C        8.17305320      -6.97155625       7.89180990
C        7.82900983      -6.52577630       9.16480947
Br       8.85785141      -7.06035589      10.65742086
C        6.72490791      -5.69537232       9.34729594
C        5.95869996      -5.30460364       8.24375061
C        4.91621962      -4.09103141       5.44678254
Cl       5.09542805      -2.63417720       6.30971930
H        2.69711907      -2.82320169       0.12518097
H        4.12658201      -4.23172823       1.52985082
H        2.46052036      -2.37152854       5.06150040
H        1.07171006      -0.93928294       3.64031187
H        7.67531348      -6.93996623       5.79967277
H        9.02646713      -7.62754173       7.74268015
H        6.44594106      -5.35400898      10.34067850
H        5.08512434      -4.67985634       8.41304070
C       -0.00445707       0.01189536      -1.78238275
H       -0.66409135       0.67374010      -2.43557963
H        0.65740317      -0.63156657      -2.45157240
C       -0.90989263      -0.90692880      -0.91072765
C        0.90977584       0.90977584      -0.90977584
C       -0.00465871       1.77757030       0.00794375
H       -0.66225468       2.44313916      -0.64384735
H        0.64322798       2.43503045       0.67728295
C       -1.78241447       0.00034974      -0.00472694
H       -2.45427497      -0.65498947       0.64260836
H       -2.43311707       0.67328779      -0.65473579
C       -0.91132561       0.90220522       0.91563759
C       -0.01476271      -0.02253852       1.78660255
H       -0.67934791      -0.69751639       2.42135241
H        0.63392994       0.61504881       2.47327442
C        0.01484550      -1.77751727      -0.01636693
H        0.67870853      -2.42144646      -0.68295456
H       -0.62264859      -2.45592969       0.64226336
C        1.78714474       0.01002794       0.00389507
H        2.44202412       0.67113390       0.66197326
H        2.45385902      -0.65136977      -0.64189061
C        0.91606151      -0.90478549       0.90901405
