133
Properties=species:S:1:pos:R:3 pbc="F F F"
C        0.00000000       0.00000000       0.00000000
O        4.90376716       7.16399433      -0.82965506
C        5.07386316       6.04462874      -0.35294204
C        6.07623945       5.07942155      -0.96984807
S        5.51700201       4.53937728      -2.60756496
C        4.18300421       3.53906755      -2.17928100
N        3.92312303       3.01521173      -1.00208008
C        2.77236059       2.28546171      -1.20537253
C        2.01383227       1.49123409      -0.34030362
C        0.88045036       0.88045036      -0.88045036
C        0.55944636       1.07618976      -2.22392531
N        1.26986045       1.83257688      -3.10161714
C        2.34500828       2.39582488      -2.52517063
N        3.26186321       3.20196844      -3.12731400
H        3.26037438       3.49263487      -4.09284382
N        4.42527215       5.52725459       0.75564709
C        3.48962315       6.17892558       1.59496666
C        3.18822824       7.54015833       1.48496418
C        2.22972559       8.13239076       2.31485750
C        1.56469367       7.37422240       3.27367575
C        1.87077287       6.02348754       3.41864049
C        2.83167027       5.43263979       2.59046133
H        6.26941961       4.21923409      -0.32172426
H        7.02408321       5.61677500      -1.07898434
H        2.30422926       1.36127517       0.69376087
H       -0.32031023       0.60523515      -2.65536623
H        4.51460992       4.52441239       0.90854150
H        3.68243828       8.17809293       0.75872762
H        2.00412612       9.19065698       2.20345628
H        0.81384793       7.83688553       3.90925517
H        1.35598761       5.43988420       4.17738507
C        3.12650706       4.03954146       2.80481685
C        3.37343288       2.87282160       2.98433959
Br       3.77269104       0.98633427       3.27461268
O       -2.08762040      -2.82865378      -7.98114237
C       -1.20828017      -3.09686703      -7.16628675
C       -1.14703927      -4.46876546      -6.50970434
S       -2.55881356      -4.70738981      -5.39774088
C       -2.15643201      -3.61781229      -4.12710846
N       -0.98003494      -3.09118617      -3.86919373
C       -1.19360070      -2.32603110      -2.74356302
C       -0.32678322      -1.53782960      -1.98075716
C       -0.88045036      -0.88045036      -0.88045036
C       -2.23626577      -1.03366068      -0.58963497
N       -3.11302021      -1.79327837      -1.29775589
C       -2.52463701      -2.39766393      -2.34370286
N       -3.11969352      -3.22823098      -3.24322114
H       -4.08944776      -3.50433876      -3.25206655
N       -0.19641846      -2.24614005      -6.75432114
C        0.07305580      -0.93394653      -7.21269134
C       -0.60090336      -0.35160884      -8.29091020
C       -0.32406317       0.96215216      -8.68534784
C        0.63763830       1.71038408      -8.01326269
C        1.34023126       1.13935829      -6.95520948
C        1.06503866      -0.17555793      -6.56332946
H       -0.20318835      -4.62774578      -5.97944383
H       -1.19510194      -5.21659758      -7.30814303
H        0.72045265      -1.45326334      -2.23893286
H       -2.67806234      -0.52701730       0.26478849
H        0.32990962      -2.53026663      -5.93012380
H       -1.35505848      -0.89332735      -8.85341776
H       -0.86889753       1.39763162      -9.52006091
H        0.84198345       2.73388858      -8.31735032
H        2.09825578       1.72544322      -6.44218573
C        1.84222926      -0.72216467      -5.48129626
C        2.49312638      -1.17994781      -4.57509346
Br       3.54557198      -1.92014444      -3.10984016
O       -6.02329035       6.27882686       0.59529934
C       -6.04393923       5.07469433       0.35280038
C       -6.71922871       4.09953665       1.30674370
S       -5.80203462       3.99493384       2.86697579
C       -4.38513177       3.16311752       2.35310347
N       -4.22390471       2.46610610       1.25040403
C       -2.93374383       1.99088999       1.33856101
C       -2.18567303       1.17672202       0.48297494
C       -0.88045036       0.88045036       0.88045036
C       -0.38793363       1.38910355       2.08252424
N       -1.07992810       2.17713965       2.94698672
C       -2.32542842       2.42986757       2.51070780
N       -3.27213007       3.17728698       3.14172859
H       -3.16939713       3.65002077       4.02643517
N       -5.49714113       4.46157238      -0.76183385
C       -4.86070947       5.07866454      -1.86579195
C       -4.82159894       6.46531109      -2.04348764
C       -4.14973617       7.03060988      -3.13308719
C       -3.51459385       6.21727642      -4.06662996
C       -3.56607115       4.83306133      -3.92351256
C       -4.24080478       4.26836578      -2.83532183
H       -6.84185286       3.10798822       0.86053689
H       -7.72369868       4.48429559       1.51184828
H       -2.61072571       0.79808120      -0.43706336
H        0.62658794       1.16458885       2.40229025
H       -5.40957120       3.44759672      -0.72668711
H       -5.30613083       7.14444017      -1.34876741
H       -4.12348833       8.11233605      -3.24449757
H       -2.98564645       6.66176592      -4.90593409
H       -3.07779776       4.20336074      -4.66267177
C       -4.28443734       2.83129773      -2.75450340
C       -4.32097961       1.62775324      -2.68681796
Br      -4.38006536      -0.31827641      -2.57737633
O        2.98207047      -1.95698259       7.95836350
C        1.94760484      -2.18690318       7.33692592
C        1.57775747      -3.60879863       6.93895296
S        2.73037165      -4.24228970       5.69128290
C        2.27987473      -3.29571642       4.32576162
N        1.16554722      -2.61976051       4.15510711
C        1.29314518      -2.07312667       2.89692298
C        0.43262807      -1.26788759       2.14485434
C        0.88045036      -0.88045036       0.88045036
C        2.13044730      -1.30232690       0.42678722
N        2.99549295      -2.08930702       1.11925450
C        2.51226114      -2.42705486       2.32668779
N        3.12498041      -3.20761374       3.25855149
H        4.03180412      -3.64029895       3.17375000
N        1.01438418      -1.24528673       6.93720874
C        1.01953185       0.14593367       7.19998388
C        1.94402558       0.75507589       8.05447271
C        1.93135370       2.13982319       8.25572834
C        0.98798175       2.93535846       7.61261703
C        0.04064148       2.34502804       6.78000648
C        0.05197487       0.95980487       6.58167872
H        0.54459003      -3.68008878       6.58569916
H        1.65208101      -4.23036925       7.83739228
H       -0.53205920      -0.97009486       2.53370789
H        2.48919806      -1.00722059      -0.55612749
H        0.32013114      -1.55207126       6.25827842
H        2.69635307       0.18025912       8.58570964
H        2.66733864       2.59251754       8.91650571
H        0.98861009       4.01177613       7.76464433
H       -0.70062601       2.97091105       6.29002379
C       -0.96862209       0.40248570       5.73233946
C       -1.82337204      -0.06426911       5.02101782
Br      -3.20543043      -0.81897215       3.87087090
