138
Properties=species:S:1:pos:R:3 pbc="F F F"
C        1.79200112       1.79200112      -1.79200112
C        2.16266445       3.06001814      -1.34939826
C        2.97161945       3.86214321      -2.15324953
C        3.40398123       3.39651623      -3.39672051
C        3.02785935       2.12366458      -3.85273488
C        3.50626655       1.61508030      -5.19055239
S        5.10747552       0.76516356      -5.03836284
C        5.34478179       0.26589487      -6.66966767
N        6.44675776      -0.46690366      -6.99956291
H        7.17917123      -0.76600364      -6.37597441
C        6.36965409      -0.72972252      -8.33540988
N        7.24953440      -1.43117184      -9.07194589
C        6.86898675      -1.50748350     -10.37472266
C        5.71667552      -0.94068719     -10.92029587
C        4.84233979      -0.22244387     -10.10389308
C        5.19172834      -0.11821040      -8.75309067
N        4.56380533       0.50146183      -7.69903065
C        2.22019894       1.31983896      -3.03303586
H        1.83102269       3.42940055      -0.38274091
H        3.26839612       4.85011030      -1.81051658
H        4.04076835       4.03220374      -4.00940886
H        3.59815046       2.45260916      -5.89054401
H        2.76154374       0.92769848      -5.60790292
H        7.55706364      -2.07029187     -11.00242424
H        3.93581124       0.23514330     -10.47799459
H        1.92977709       0.32569840      -3.36539574
C        5.42606316      -1.09563093     -12.32212927
C        5.18267532      -1.22539631     -13.49616475
Br       4.78913775      -1.43521596     -15.39448082
C       -1.79200112      -1.79200112      -1.79200112
C       -1.59126030      -1.81022347      -3.17059708
C       -2.39377189      -2.61927122      -3.97396909
C       -3.39533092      -3.40369680      -3.39819025
C       -3.60878894      -3.38422761      -2.01124226
C       -4.68214185      -4.24223414      -1.38752324
S       -4.04569410      -5.89466682      -0.97064100
C       -5.44623425      -6.58784843      -0.24626165
N       -5.38965945      -7.85209005       0.26233249
H       -4.58970905      -8.46432020       0.26488725
C       -6.62021839      -8.13333514       0.77821208
N       -7.00050075      -9.27278619       1.38297849
C       -8.29834201      -9.22197826       1.78409436
C       -9.16277782      -8.14108817       1.60758180
C       -8.70899854      -6.98551561       0.97072515
C       -7.37742797      -6.99037074       0.54119009
N       -6.62836449      -6.03400791      -0.10192541
C       -2.79050350      -2.57309744      -1.20947281
H       -0.81353453      -1.20332332      -3.62630630
H       -2.23791497      -2.64157756      -5.04953047
H       -4.00883653      -4.03516118      -4.03838323
H       -5.52613171      -4.33566842      -2.07950349
H       -5.06107262      -3.75338214      -0.48269039
H       -8.64188228     -10.12754124       2.28022751
H       -9.33907572      -6.12037751       0.81050410
H       -2.93385680      -2.55562696      -0.13138747
C      -10.52061675      -8.21348092       2.08153617
C      -11.65780684      -8.27410985       2.47847295
Br     -13.49654706      -8.37214171       3.12028616
C       -1.79200112       1.79200112       1.79200112
C       -2.42097296       1.24346448       2.90764341
C       -3.22185231       2.05062762       3.71453227
C       -3.39424451       3.40071359       3.40225987
C       -2.77050791       3.95827616       2.27547473
C       -2.94581870       5.42039523       1.94568531
S       -1.69115361       6.43941584       2.78043247
C       -2.10942382       7.99650632       2.17441418
N       -1.36600626       9.08320792       2.53020283
H       -0.56218805       9.08963675       3.13731721
C       -1.90876609      10.16484535       1.90173001
N       -1.48060187      11.43781784       1.97188874
C       -2.24743556      12.27004702       1.21874333
C       -3.35135268      11.89032818       0.45460333
C       -3.74760940      10.55284822       0.42333138
C       -2.98646548       9.65748148       1.18266165
N       -3.09881714       8.29983062       1.36565005
C       -1.95931888       3.14002425       1.47373063
H       -2.29129733       0.19397967       3.15788715
H       -3.71051188       1.62920240       4.58930872
H       -4.01713905       4.01909937       4.04614252
H       -3.94689325       5.74752261       2.24688776
H       -2.87437223       5.56163132       0.86114160
H       -1.92948488      13.31032621       1.24938492
H       -4.59534958      10.20751418      -0.15391462
H       -1.45821590       3.55878566       0.60386967
C       -4.08188683      12.87338361      -0.30270894
C       -4.69370918      13.69669253      -0.93695796
Br      -5.68297417      15.02791343      -1.96248500
C        1.79200112      -1.79200112       1.79200112
C        1.42011559      -3.11152109       2.04044417
C        2.22842867      -3.91689567       2.84168785
C        3.40234206      -3.40061037       3.39426554
C        3.77908356      -2.07002482       3.15515043
C        5.05465695      -1.51610857       3.74113372
S        6.46908982      -1.80715239       2.63475971
C        7.72072744      -1.03137464       3.52824225
N        8.98404925      -0.97838440       3.01698337
H        9.29340546      -1.35874177       2.13699478
C        9.75421993      -0.30358729       3.91753423
N       11.06410057      -0.01970102       3.80650686
C       11.52351888       0.67082294       4.88352997
C       10.76307836       1.05518764       5.98839347
C        9.40751801       0.72960915       6.04588014
C        8.88849146       0.01959892       4.95771607
N        7.62082304      -0.44450375       4.69897102
C        2.96347792      -1.26918039       2.34041544
H        0.50856258      -3.52103562       1.61356596
H        1.94596049      -4.94875319       3.03430933
H        4.02605426      -4.04432647       4.01200022
H        5.24499537      -1.98246043       4.71384782
H        4.93903185      -0.44056418       3.91754912
H       12.58128410       0.92041885       4.82833076
H        8.77480057       1.00528145       6.87943002
H        3.24701862      -0.23948514       2.13436747
C       11.37186761       1.78770011       7.06839400
C       11.88172861       2.40117930       7.97289444
Br      12.70613071       3.39312326       9.43539515
C       -0.00445707       0.01189536      -1.78238275
H       -0.66409135       0.67374010      -2.43557963
H        0.65740317      -0.63156657      -2.45157240
C       -0.90989263      -0.90692880      -0.91072765
C        0.90977584       0.90977584      -0.90977584
C       -0.00465871       1.77757030       0.00794375
H       -0.66225468       2.44313916      -0.64384735
H        0.64322798       2.43503045       0.67728295
C       -1.78241447       0.00034974      -0.00472694
H       -2.45427497      -0.65498947       0.64260836
H       -2.43311707       0.67328779      -0.65473579
C       -0.91132561       0.90220522       0.91563759
C       -0.01476271      -0.02253852       1.78660255
H       -0.67934791      -0.69751639       2.42135241
H        0.63392994       0.61504881       2.47327442
C        0.01484550      -1.77751727      -0.01636693
H        0.67870853      -2.42144646      -0.68295456
H       -0.62264859      -2.45592969       0.64226336
C        1.78714474       0.01002794       0.00389507
H        2.44202412       0.67113390       0.66197326
H        2.45385902      -0.65136977      -0.64189061
C        0.91606151      -0.90478549       0.90901405
