158
Properties=species:S:1:pos:R:3 pbc="F F F"
O        8.41428183       0.98955907      -4.41631663
C        8.04375643       1.53389947      -3.38060475
C        8.21853890       3.03352979      -3.16804849
S        7.03788413       3.99537276      -4.15167384
C        5.53421079       3.51769218      -3.45962534
N        5.34208288       2.75688774      -2.40624077
C        3.97990572       2.56624043      -2.37210097
C        3.17343114       1.78425925      -1.54461401
C        1.79618616       1.79618616      -1.79618616
C        1.27756448       2.59050748      -2.83433290
C       -0.19733427       2.62903349      -3.12508910
N        2.04424007       3.36004590      -3.66040230
C        3.35366193       3.28978837      -3.37755666
N        4.36748511       3.90509414      -4.05130173
H        4.27042288       4.48633255      -4.86950599
N        7.46781886       0.90729645      -2.28745562
C        7.13464419      -0.45251666      -2.11544008
C        7.36087409      -1.42435467      -3.09291758
C        6.96104500      -2.74990278      -2.88526451
C        6.33396349      -3.12105078      -1.69837321
C        6.11989681      -2.16965707      -0.70400860
C        6.52466840      -0.84683006      -0.90880012
Br       6.27313889       0.37877931       0.52667202
H        9.23527514       3.29579847      -3.47915866
H        8.13461924       3.30405851      -2.10996048
H        3.60587851       1.18274396      -0.75519134
H       -0.54762508       1.64920042      -3.46313728
H       -0.41662411       3.35422471      -3.91602716
H       -0.75775212       2.93758879      -2.23646583
H        7.07607072       1.52334270      -1.57663810
H        7.83469617      -1.18070465      -4.03924104
H        7.13771047      -3.49059205      -3.66156263
H        6.02123605      -4.14998054      -1.54598135
H        5.64397266      -2.46890237       0.22787835
O       -0.69413295      -5.03737516      -8.08864942
C       -1.17429307      -3.93322865      -7.85073892
C       -2.63101532      -3.61754490      -8.17155696
S       -3.76590238      -4.41489314      -7.00413521
C       -3.35155969      -3.63521186      -5.52475675
N       -2.51990970      -2.63327457      -5.35202712
C       -2.43644541      -2.49626686      -3.98553484
C       -1.65246765      -1.66697011      -3.18286663
C       -1.79618616      -1.79618616      -1.79618616
C       -2.71657273      -2.71856980      -1.26726232
C       -2.89790948      -2.87608775       0.21720891
N       -3.49125086      -3.54399543      -2.02944198
C       -3.29231056      -3.38249216      -3.34620424
N       -3.88085786      -4.09044917      -4.35257395
H       -4.53686770      -4.84807145      -4.24132227
N       -0.50311249      -2.84774149      -7.31171696
C        0.83552549      -2.75661190      -6.87648120
C        1.73372766      -3.82454595      -6.93861869
C        3.03611139      -3.68950021      -6.44301792
C        3.45768029      -2.48607614      -5.88289006
C        2.58221823      -1.40406282      -5.83240375
C        1.28317999      -1.53691376      -6.33290468
Br       0.17074624       0.00828437      -6.30427678
H       -2.83725694      -3.99385648      -9.17911886
H       -2.81443816      -2.53795013      -8.19624993
H       -0.95203099      -0.96868394      -3.62309888
H       -1.98227400      -3.25961590       0.67717728
H       -3.70426146      -3.58451656       0.43515027
H       -3.17187973      -1.92034092       0.67591814
H       -1.08439718      -2.05864694      -7.03300740
H        1.44742151      -4.78595441      -7.35469966
H        3.71829784      -4.53488990      -6.49208898
H        4.46767598      -2.38977703      -5.49513580
H        2.92230906      -0.46124856      -5.40825244
O       -4.86184415       8.18860413       0.76970925
C       -3.77539585       7.91312148       1.26974331
C       -3.48729666       8.19209326       2.74072726
S       -4.33872742       7.01787334       3.82832997
C       -3.58418187       5.53033576       3.39701068
N       -2.56691601       5.35315448       2.58514091
C       -2.45997180       3.98609908       2.47217623
C       -1.63113800       3.18235508       1.68881131
C       -1.79618616       1.79618616       1.79618616
C       -2.75249450       1.26812384       2.68178652
C       -2.94901947      -0.21598313       2.82375197
N       -3.57818421       2.03152692       3.45497715
C       -3.38117997       3.34833561       3.29149138
N       -4.07928945       4.35733296       3.88725857
H       -4.85481494       4.24894764       4.52249884
N       -2.68704768       7.36409453       0.61142872
C       -2.57407067       6.95825395      -0.73475701
C       -3.61842106       7.06697991      -1.65596398
C       -3.46383458       6.59890690      -2.96633475
C       -2.26409288       6.02011602      -3.37292299
C       -1.20485332       5.92322953      -2.47383452
C       -1.35705133       6.39622566      -1.16663853
Br       0.15994454       6.30453584      -0.01934512
H       -3.84475527       9.20328181       2.96219520
H       -2.41212655       8.18660124       2.94991043
H       -0.90614956       3.62199850       1.01566575
H       -3.32115190      -0.64506681       1.88862754
H       -3.68148018      -0.43569664       3.60784421
H       -2.01111376      -0.70375693       3.10894568
H       -1.91885343       7.05302026       1.20417783
H       -4.57641271       7.49916999      -1.38235014
H       -4.29124923       6.68418290      -3.66675109
H       -2.15271523       5.65391343      -4.38939181
H       -0.26434514       5.48467834      -2.80183154
O        1.40341025      -8.68080682       3.73594045
C        0.97219375      -7.68201140       4.30405549
C        1.51900068      -7.24316450       5.65795200
S        3.16844306      -6.50533177       5.51115590
C        2.84052619      -5.09810801       4.57289411
N        1.66819328      -4.64095096       4.19606715
C        1.96899603      -3.59527337       3.35397771
C        1.15833841      -2.77033082       2.57363517
C        1.79618616      -1.79618616       1.79618616
C        3.19592084      -1.66745774       1.83902628
C        3.90928547      -0.62716293       1.02033992
N        4.01149725      -2.46378233       2.58940869
C        3.33989457      -3.38593091       3.29518149
N        3.87720449      -4.34952384       4.09715266
H        4.85985299      -4.51097440       4.25543403
N       -0.04281556      -6.85593566       3.84945084
C       -0.77526839      -6.92678831       2.64604768
C       -0.56526657      -7.91413684       1.68056672
C       -1.28770551      -7.90271708       0.48139515
C       -2.23020025      -6.90768162       0.23380454
C       -2.46800592      -5.92775668       1.19449757
C       -1.75079751      -5.94250282       2.39493315
Br      -2.18810656      -4.62003447       3.69331827
H        1.58426272      -8.13302617       6.29294339
H        0.83944781      -6.54738122       6.16180918
H        0.08333196      -2.89784437       2.56263748
H        3.78490778      -0.82779535      -0.04799050
H        4.98242616      -0.63195660       1.23924500
H        3.53366930       0.37386932       1.25650253
H       -0.17107471      -5.98484617       4.36228007
H        0.16749755      -8.70295409       1.82278091
H       -1.10397652      -8.67471869      -0.26206112
H       -2.78321508      -6.90144894      -0.70099700
H       -3.21717535      -5.16207615       1.00229114
C       -0.00445707       0.01189536      -1.78238275
H       -0.66409135       0.67374010      -2.43557963
H        0.65740317      -0.63156657      -2.45157240
C       -0.90989263      -0.90692880      -0.91072765
C        0.90977584       0.90977584      -0.90977584
C       -0.00465871       1.77757030       0.00794375
H       -0.66225468       2.44313916      -0.64384735
H        0.64322798       2.43503045       0.67728295
C       -1.78241447       0.00034974      -0.00472694
H       -2.45427497      -0.65498947       0.64260836
H       -2.43311707       0.67328779      -0.65473579
C       -0.91132561       0.90220522       0.91563759
C       -0.01476271      -0.02253852       1.78660255
H       -0.67934791      -0.69751639       2.42135241
H        0.63392994       0.61504881       2.47327442
C        0.01484550      -1.77751727      -0.01636693
H        0.67870853      -2.42144646      -0.68295456
H       -0.62264859      -2.45592969       0.64226336
C        1.78714474       0.01002794       0.00389507
H        2.44202412       0.67113390       0.66197326
H        2.45385902      -0.65136977      -0.64189061
C        0.91606151      -0.90478549       0.90901405
