105
Properties=species:S:1:pos:R:3 pbc="F F F"
C        0.00000000       0.00000000       0.00000000
C        0.86717602       0.86717602      -0.86717602
C        2.16380228       0.58965263      -1.22474973
C        2.58588248       1.67452221      -2.03355867
C        1.51826448       2.55478641      -2.13697405
O        0.47242590       2.04713044      -1.40629243
C        1.42737675       3.81142027      -2.82392730
N        0.75969208       4.84162770      -2.34272396
C        0.92746850       5.85727754      -3.24524618
C        0.43978050       7.17088712      -3.20085109
C        0.75774593       8.02951094      -4.25602887
C        1.53864577       7.60193263      -5.33114490
C        2.02946877       6.29202422      -5.38888439
C        1.70263784       5.44195221      -4.32425816
N        1.98525962       4.12188359      -4.04517383
C        2.68976247       3.21994191      -4.92386239
H        2.73955772      -0.27630039      -0.93006697
H        3.56561716       1.80652849      -2.46950781
H       -0.16509642       7.49153271      -2.36054058
H        1.77385815       8.28851021      -6.14180944
H        2.63516645       5.96400157      -6.22655105
H        2.64349909       3.58959921      -5.95100956
H        2.21505578       2.23556238      -4.89111213
H        3.72986665       3.16311938      -4.59510950
C        0.26978021       9.38411116      -4.23262590
C       -0.13889108      10.51858884      -4.21302590
Br      -0.79967799      12.35294331      -4.18133437
C       -0.86717602      -0.86717602      -0.86717602
C       -2.16675698      -1.21736087      -0.59408678
C       -2.58303899      -2.04066941      -1.67025495
C       -1.51651708      -2.14134379      -2.55216407
O       -0.46656736      -1.42094293      -2.03833848
C       -1.40941089      -2.86885469      -3.78445874
N       -0.30373377      -3.48294288      -4.15736708
C       -0.59038117      -4.08820342      -5.35140763
C        0.23282793      -4.88284887      -6.16149776
C       -0.30230947      -5.39494283      -7.34603345
C       -1.61958863      -5.12873037      -7.72340429
C       -2.45112565      -4.33444335      -6.92480839
C       -1.90131652      -3.82742065      -5.74011104
N       -2.39444593      -3.02191805      -4.73595306
C       -3.69783193      -2.40297428      -4.73276056
H       -2.73975030      -0.92958538       0.27601138
H       -3.54433082      -2.52273876      -1.77458389
H        1.25381236      -5.08310207      -5.85768717
H       -2.01505704      -5.53864126      -8.65047950
H       -3.47369640      -4.12963187      -7.22239080
H       -4.08501746      -2.34619198      -5.75289843
H       -3.61659031      -1.38628245      -4.33885752
H       -4.36406553      -3.00916281      -4.11486718
C        0.52301670      -6.21518008      -8.19435389
C        1.21422737      -6.90212877      -8.90482226
Br       2.33185655      -8.01286671     -10.05358953
C       -0.86717602       0.86717602       0.86717602
C       -0.90723028       2.23948785       0.83148650
C       -1.85010910       2.62772860       1.81612565
C       -2.34603286       1.46851403       2.39547805
O       -1.72416575       0.39545648       1.80622654
C       -3.30593373       1.30690846       3.44988213
N       -3.20345085       0.36927938       4.37131350
C       -4.26695583       0.54846071       5.21457568
C       -4.61358178      -0.16968025       6.36761717
C       -5.75962908       0.21678437       7.06687229
C       -6.54646650       1.28710554       6.63815126
C       -6.21286623       2.01060372       5.48690744
C       -5.06136492       1.61193573       4.79554756
N       -4.44170913       2.06148091       3.64912699
C       -4.94669841       3.10128560       2.78558274
H       -0.32219839       2.88219282       0.18893309
H       -2.11673401       3.63954580       2.08537365
H       -3.99449491      -0.99851558       6.69099754
H       -7.43474727       1.57038812       7.19904241
H       -6.82759316       2.84097885       5.15714706
H       -6.02154724       3.22308450       2.93947612
H       -4.77842715       2.82107502       1.74222811
H       -4.42801981       4.03131957       3.02875614
C       -6.13571819      -0.50438155       8.25518062
C       -6.45069281      -1.10835800       9.25038886
Br      -6.95998014      -2.08493685      10.85955640
C        0.86717602      -0.86717602       0.86717602
C        0.42318181      -1.90314167       1.65188116
C        1.57371709      -2.42804147       2.29220479
C        2.66459417      -1.69020186       1.85522891
O        2.21083872      -0.72876091       0.98624915
C        4.05042779      -1.80161559       2.21068094
N        4.83760447      -0.75339249       2.35304678
C        6.05999687      -1.24488716       2.72510820
C        7.24129172      -0.55002027       3.02020672
C        8.36914757      -1.28955020       3.38458797
C        8.33287205      -2.68315333       3.45569792
C        7.16038627      -3.38915319       3.16083792
C        6.03731284      -2.63485566       2.79667971
N        4.74942387      -2.96786446       2.43502870
C        4.25672039      -4.31315394       2.26369243
H       -0.60055058      -2.23184561       1.76202927
H        1.59660257      -3.23691440       3.00813649
H        7.25708723       0.53219200       2.96208165
H        9.22375913      -3.23827426       3.74214441
H        7.13707585      -4.47197037       3.21667284
H        5.09239049      -4.99657509       2.09514228
H        3.59992067      -4.35137289       1.39043673
H        3.71852860      -4.59952840       3.17003852
C        9.59408493      -0.59855790       3.69387444
C       10.61996996      -0.01985185       3.95290186
Br      12.27873930       0.91586689       4.37172728
