129
Properties=species:S:1:pos:R:3 pbc="F F F"
C        0.00000000       0.00000000       0.00000000
C        0.88200947       0.88200947      -0.88200947
C        1.00292593       2.24060262      -0.59790479
C        1.80508648       3.04563688      -1.40610233
C        2.48617357       2.48994760      -2.49097664
C        2.37721138       1.12027605      -2.77650458
C        3.11187541       0.52095412      -3.95063969
S        2.10626570       0.57559620      -5.46441601
C        3.19755059      -0.16186363      -6.57579443
N        2.83332378      -0.32814396      -7.88002740
H        1.95769671      -0.05983777      -8.29936599
C        3.88028454      -0.92906681      -8.51512758
N        3.94404013      -1.27459491      -9.81080984
C        5.12881587      -1.86187874     -10.14652898
C        5.24161749      -2.26616729     -11.59123119
C        6.18050162      -2.08767807      -9.23981451
C        6.04904556      -1.70171170      -7.90052099
C        4.84550212      -1.09810343      -7.53202048
N        4.40500229      -0.61301014      -6.32451278
C        1.55959872       0.31972987      -1.96408026
H        0.47681911       2.68081392       0.24503200
H        1.89929523       4.10748432      -1.19194468
H        3.10452285       3.13283242      -3.11485587
H        3.37941646      -0.51754233      -3.72231971
H        4.04984481       1.06511547      -4.11105376
H        5.37840268      -3.34857421     -11.67802686
H        6.07643828      -1.74697979     -12.07247987
H        4.33002214      -2.00329931     -12.13941967
H        6.83284374      -1.85598886      -7.16871062
H        1.45426870      -0.74125817      -2.17886039
C        7.41788000      -2.71238825      -9.62998363
C        8.45418439      -3.23558302      -9.95675027
Br      10.12980094      -4.08154473     -10.48510429
C       -0.88200947      -0.88200947      -0.88200947
C       -1.19783103      -0.46900139      -2.17460093
C       -2.00639047      -1.27296692      -2.97746830
C       -2.49191375      -2.48718028      -2.48800378
C       -2.16902098      -2.91419442      -1.19077662
C       -2.69611340      -4.22561012      -0.66174570
S       -4.30026037      -4.01338479       0.16736725
C       -4.61067196      -5.64120546       0.64039603
N       -5.75473660      -5.94790729       1.31743667
H       -6.48189155      -5.30722201       1.59188862
C       -5.73162015      -7.29071906       1.55599390
N       -6.66666655      -8.01016009       2.19657159
C       -6.35458679      -9.33584703       2.27696771
C       -7.37683737     -10.17907156       2.98922754
C       -5.17981321      -9.90163477       1.74880992
C       -4.24478373      -9.09379656       1.09072544
C       -4.54146585      -7.73309942       0.99514610
N       -3.85119252      -6.69078317       0.42547075
C       -1.36327718      -2.09392044      -0.38621122
H       -0.82337763       0.47423367      -2.56345706
H       -2.26004183      -0.95335952      -3.98532289
H       -3.12568225      -3.10086178      -3.12566710
H       -1.97115858      -4.65369215       0.04065688
H       -2.79958176      -4.93793394      -1.48849833
H       -6.93900882     -10.64589662       3.87705011
H       -7.77260181     -10.95069672       2.32136018
H       -8.22180956      -9.56552779       3.32119486
H       -3.32758988      -9.48696274       0.66898711
H       -1.11374089      -2.40407355       0.62594353
C       -4.88262506     -11.30671244       1.85386212
C       -4.63372999     -12.48346498       1.94184334
Br      -4.23128771     -14.38617432       2.08410153
C       -0.88200947       0.88200947       0.88200947
C       -1.18933034       0.47390162       2.17820138
C       -1.99789514       1.27783882       2.98109174
C       -2.49190954       2.48716086       2.48802742
C       -2.17761068       2.90928641       1.18709492
C       -2.71387581       4.21540388       0.65418953
S       -4.32104563       3.99106174      -0.16582945
C       -4.64193826       5.61493384      -0.64539071
N       -5.79087459       5.91255421      -1.31822158
H       -6.51617412       5.26689667      -1.58584586
C       -5.77565682       7.25425520      -1.56356671
N       -6.71746172       7.96582628      -2.20303294
C       -6.41241563       9.29263051      -2.29158003
C       -7.44239775      10.12719002      -3.00290638
C       -5.23787246       9.86688661      -1.77212101
C       -4.29555559       9.06700797      -1.11470870
C       -4.58495391       7.70534687      -1.01088161
N       -3.88665482       6.66933687      -0.43948675
C       -1.37178840       2.08901869       0.38260176
H       -0.80823784      -0.46550411       2.56986730
H       -2.24493029       0.96201534       3.99177860
H       -3.12555826       3.10086233       3.12579054
H       -1.99457196       4.64356996      -0.05394808
H       -2.81679021       4.93132770       1.47789612
H       -7.01132883      10.59174343      -3.89521694
H       -7.83868756      10.90016587      -2.33691507
H       -8.28593330       9.50779991      -3.32759071
H       -3.37825221       9.46683386      -0.69952055
H       -1.12884233       2.39534615      -0.63231757
C       -4.94823706      11.27288230      -1.88564397
C       -4.70566741      12.45040368      -1.98071945
Br      -4.31345279      14.35435617      -2.13444846
C        0.88200947      -0.88200947       0.88200947
C        0.92706100      -2.25638124       0.65799111
C        1.72937915      -3.06113365       1.46631289
C        2.48623105      -2.48972012       2.49114665
C        2.45368137      -1.10480102       2.71550962
C        3.27025404      -0.48833878       3.82487641
S        2.33675698      -0.42566702       5.38385391
C        3.51247358       0.30870865       6.40771647
N        3.21901697       0.55157670       7.71776696
H        2.35311696       0.34488042       8.18898839
C        4.32149320       1.13009517       8.27494728
N        4.46285510       1.53095740       9.54835736
C        5.68790233       2.07560990       9.80117369
C        5.88801287       2.53955989      11.21822841
C        6.70422365       2.20922554       8.83763996
C        6.49137766       1.76926116       7.52573835
C        5.24529068       1.20772136       7.24184985
N        4.72585614       0.68964422       6.08029302
C        1.63553790      -0.30398069       1.90389027
H        0.34169337      -2.70893951      -0.13803185
H        1.76467164      -4.13493887       1.29911372
H        3.10372494      -3.13229884       3.11618736
H        3.57368956       0.52466714       3.53517142
H        4.18900651      -1.06885225       3.96815527
H        6.07805537       3.61701751      11.24681747
H        6.72032837       2.00354346      11.68515344
H        4.99263459       2.34589151      11.81939941
H        7.24549896       1.85230789       6.75237444
H        1.58913901       0.76952738       2.07225928
C        7.98607114       2.79119174       9.14059598
C        9.05961841       3.27858843       9.39432165
Br      10.79545356       4.06666765       9.80457460
