142
Properties=species:S:1:pos:R:3 pbc="F F F"
C        1.79191350       1.79191350      -1.79191350
C        1.91282996       3.15050665      -1.50780881
C        2.71499051       3.95554090      -2.31600635
C        3.39607759       3.39985163      -3.40088066
C        3.28711541       2.03018008      -3.68640860
C        4.02177943       1.43085814      -4.86054372
S        3.01616973       1.48550022      -6.37432004
C        4.10745461       0.74804040      -7.48569846
N        3.74322780       0.58176007      -8.78993143
H        2.86760074       0.85006625      -9.20927002
C        4.79018857      -0.01916279      -9.42503161
N        4.85394416      -0.36469089     -10.72071386
C        6.03871989      -0.95197471     -11.05643301
C        6.15152152      -1.35626327     -12.50113521
C        7.09040564      -1.17777404     -10.14971853
Br       8.72201959      -2.00152033     -10.66419769
C        6.95894959      -0.79180767      -8.81042501
C        5.75540614      -0.18819940      -8.44192451
N        5.31490632       0.29689389      -7.23441681
C        2.46950274       1.22963390      -2.87398428
H        1.38672313       3.59071794      -0.66487203
H        2.80919925       5.01738834      -2.10184871
H        4.01442687       4.04273644      -4.02475990
H        4.28932048       0.39236170      -4.63222374
H        4.95974883       1.97501949      -5.02095778
H        6.28830671      -2.43867019     -12.58793088
H        6.98634230      -0.83707577     -12.98238389
H        5.23992616      -1.09339529     -13.04932369
H        7.74274777      -0.94608483      -8.07861465
H        2.36417272       0.16864585      -3.08876441
C       -1.79191350      -1.79191350      -1.79191350
C       -1.71106116      -1.68165780      -3.17842646
C       -2.51957894      -2.48437780      -3.98258103
C       -3.40136917      -3.39632131      -3.39911941
C       -3.48025512      -3.51999465      -2.00345432
C       -4.43525812      -4.50428025      -1.37364292
S       -6.06083646      -3.75095987      -1.06419366
C       -6.88446998      -5.09295333      -0.36377016
N       -8.18352989      -4.96405732       0.03266791
H       -8.75443593      -4.13702720      -0.03547388
C       -8.56869021      -6.16938113       0.54201395
N       -9.77328955      -6.48208419       1.04540661
C       -9.84906446      -7.77334587       1.47923215
C      -11.18357324      -8.16539498       2.05257476
C       -8.78422351      -8.69028317       1.41215654
Br      -8.93723524     -10.47876256       2.03130085
C       -7.55247852      -8.29902580       0.87393740
C       -7.44974012      -6.98204444       0.42265331
N       -6.40432382      -6.29574774      -0.14614545
C       -2.67039926      -2.70088687      -1.20183479
H       -1.02682722      -0.97496725      -3.64051864
H       -2.46414761      -2.39915373      -5.06513496
H       -4.02898288      -4.01221808      -4.04072225
H       -4.01253074      -4.87071262      -0.43066255
H       -4.55070610      -5.37339912      -2.03162089
H      -11.07991239      -8.45936490       3.10170989
H      -11.62292035      -8.98739356       1.47866348
H      -11.88454255      -7.32415786       2.01284583
H       -6.70623908      -8.97169617       0.80265767
H       -2.72808001      -2.77521289      -0.11829009
C       -1.79191350       1.79191350       1.79191350
C       -2.05560892       1.40996667       3.10556983
C       -2.86419717       2.21375950       3.90858109
C       -3.40178849       3.39696715       3.39805424
C       -3.13160389       3.79297599       2.07912421
C       -3.71494160       5.07081048       1.52742920
S       -5.33598894       4.78461747       0.75538358
C       -5.71100022       6.38683672       0.24335652
N       -6.88394894       6.63768938      -0.40671902
H       -7.59877386       5.96713890      -0.63897575
C       -6.90980990       7.97251865      -0.68627116
N       -7.88567282       8.64316109      -1.31886678
C       -7.61753896       9.97451563      -1.44887640
C       -8.68653576      10.76396595      -2.15410824
C       -6.44553446      10.59162943      -0.97481375
Br      -6.11582562      12.45014429      -1.18127296
C       -5.46641133       9.83321674      -0.32206114
C       -5.71761526       8.46782146      -0.17630548
N       -4.97839283       7.46501942       0.40280477
C       -2.32537267       2.97275230       1.27499595
H       -1.64044489       0.49100411       3.51086410
H       -3.07727330       1.91814559       4.93301740
H       -4.03481483       4.01078864       4.03631974
H       -3.02516538       5.49851133       0.79022920
H       -3.81553035       5.80505641       2.33513934
H       -8.29041350      11.21594711      -3.06879321
H       -9.08578247      11.54370048      -1.49783252
H       -9.52164611      10.11518937      -2.44098090
H       -4.54958596      10.26679271       0.05889891
H       -2.11624340       3.25866294       0.24667664
C        1.79191350      -1.79191350       1.79191350
C        1.78000426      -3.17408392       1.61705724
C        2.58245664      -3.97862053       2.42546059
C        3.39619199      -3.39944550       3.40117239
C        3.42097302      -2.00718834       3.57554273
C        4.29905086      -1.38222225       4.63190819
S        3.42623363      -1.23014023       6.21961613
C        4.66402423      -0.50363009       7.17353915
N        4.42765560      -0.20390455       8.48335915
H        3.57286549      -0.36184711       8.99222440
C        5.56964494       0.35311213       8.97952457
N        5.77177889       0.79336218      10.23155041
C        7.02380416       1.30127658      10.42065061
C        7.29211916       1.80746250      11.81173680
C        8.00815401       1.36327400       9.41747013
Br       9.73805129       2.08174211       9.72838777
C        7.73183079       0.88523432       8.13097045
C        6.45705413       0.36012668       7.91220380
N        5.87729562      -0.17934154       6.78957985
C        2.60245556      -1.20611438       2.76455098
H        1.15014116      -3.63275142       0.85942052
H        2.57353264      -5.05824509       2.29665858
H        4.01307457      -4.04172427       4.02712437
H        4.62733124      -0.39193792       4.29463676
H        5.20130793      -1.99064122       4.76377696
H        7.52112441       2.87755137      11.79399436
H        8.12151184       1.25811914      12.26825773
H        6.41312225       1.66821574      12.45094806
H        8.45951396       0.91309175       7.32885538
H        2.60032006      -0.12633734       2.89492558
C       -0.00445707       0.01189536      -1.78238275
H       -0.66409135       0.67374010      -2.43557963
H        0.65740317      -0.63156657      -2.45157240
C       -0.90989263      -0.90692880      -0.91072765
C        0.90977584       0.90977584      -0.90977584
C       -0.00465871       1.77757030       0.00794375
H       -0.66225468       2.44313916      -0.64384735
H        0.64322798       2.43503045       0.67728295
C       -1.78241447       0.00034974      -0.00472694
H       -2.45427497      -0.65498947       0.64260836
H       -2.43311707       0.67328779      -0.65473579
C       -0.91132561       0.90220522       0.91563759
C       -0.01476271      -0.02253852       1.78660255
H       -0.67934791      -0.69751639       2.42135241
H        0.63392994       0.61504881       2.47327442
C        0.01484550      -1.77751727      -0.01636693
H        0.67870853      -2.42144646      -0.68295456
H       -0.62264859      -2.45592969       0.64226336
C        1.78714474       0.01002794       0.00389507
H        2.44202412       0.67113390       0.66197326
H        2.45385902      -0.65136977      -0.64189061
C        0.91606151      -0.90478549       0.90901405
