166
Properties=species:S:1:pos:R:3 pbc="F F F"
O        4.85632060       1.91913980     -10.01367541
C        5.49064797       2.28250998      -9.02508500
C        4.88395799       2.14131633      -7.63626532
S        5.14725407       3.62542032      -6.61618117
C        4.23786146       3.17825563      -5.21947599
N        4.09450529       4.05195276      -4.18149969
H        4.47426955       4.98297992      -4.11801255
C        3.32214260       3.43542145      -3.24117412
N        2.93161754       3.94417688      -2.05927473
C        2.15695609       3.06751562      -1.36460415
C        1.79040131       1.79040131      -1.79040131
C        2.23146317       1.31841711      -3.02762235
C        3.03233369       2.18529468      -3.77850638
N        3.62060689       2.03818555      -5.01163840
N        6.79207518       2.76032579      -9.02621468
C        7.68109995       2.85720095     -10.12164255
C        7.40348932       2.26697933     -11.36179930
C        8.31302178       2.34620958     -12.42056618
C        9.51459579       3.01862000     -12.24724734
C        9.81297771       3.61538547     -11.02501051
C        8.90405954       3.54404527      -9.95164606
C        9.27492922       4.22406310      -8.66037811
H        5.33328075       1.26635868      -7.15528863
H        3.80846588       1.97115347      -7.75363039
H        1.82003874       3.44499126      -0.40126039
H        1.97345693       0.33675339      -3.40393672
H        7.10490695       3.14964057      -8.14540980
H        6.48549989       1.71527593     -11.53881704
H        8.06866262       1.87383614     -13.36851048
H       10.75762335       4.14167650     -10.90435183
H        9.35395347       3.49008318      -7.85232162
H        8.52593719       4.97929677      -8.40160752
H       10.24028011       4.73631727      -8.73573237
C       10.45631427       3.09665076     -13.33383719
C       11.24500349       3.16200152     -14.24385619
Br      12.52024727       3.26766817     -15.71527995
O       -8.20373276      -7.71211950      -0.87328355
C       -7.30909193      -7.77479067      -1.71436035
C       -6.20273950      -6.72952029      -1.72927986
S       -5.82799244      -6.14813083      -3.41273230
C       -4.67580098      -4.91836509      -3.04142701
N       -4.15375174      -4.14076403      -4.03344196
H       -4.36472906      -4.19332851      -5.01720445
C       -3.29631619      -3.25893141      -3.44349059
N       -2.57064395      -2.30746672      -4.05695847
C       -1.82544098      -1.59254159      -3.17109329
C       -1.79040131      -1.79040131      -1.79040131
C       -2.56532275      -2.79807294      -1.21410694
C       -3.34868672      -3.56099382      -2.08645420
N       -4.20902510      -4.60706396      -1.85434178
N       -7.14415048      -8.78414082      -2.65032436
C       -7.89870672      -9.97202423      -2.78921248
C       -8.82577433     -10.38388910      -1.82260451
C       -9.53559545     -11.57997006      -1.96423203
C       -9.32264561     -12.37922513      -3.07859239
C       -8.40819107     -11.99088948      -4.05429314
C       -7.68855875     -10.78737912      -3.92381300
C       -6.72695077     -10.41227318      -5.02014648
H       -5.31046661      -7.17097478      -1.27348667
H       -6.53205016      -5.88099529      -1.12020428
H       -1.22424723      -0.81090444      -3.63113872
H       -2.57481916      -2.99046245      -0.14886543
H       -6.44217777      -8.60107770      -3.35670185
H       -9.01240776      -9.80140932      -0.92577578
H      -10.24457628     -11.87243330      -1.19399966
H       -8.25350488     -12.62609042      -4.92405639
H       -5.70567102     -10.36074474      -4.62994252
H       -7.00579232      -9.44680251      -5.45424665
H       -6.73265797     -11.14744270      -5.83222909
C      -10.04754743     -13.61489004      -3.22436475
C      -10.65465271     -14.64975940      -3.34644909
Br     -11.63629060     -16.32305563      -3.54384916
O       -7.50088032       8.39523371       0.89302178
C       -6.69483726       8.28813429       1.81527140
C       -5.69730013       7.13850881       1.82573071
S       -5.55179499       6.36860654       3.46845403
C       -4.48650203       5.06731067       3.08178037
N       -4.14267155       4.15202246       4.03326372
H       -4.44720187       4.13457767       4.99348247
C       -3.31480084       3.24566720       3.43827014
N       -2.74673553       2.17242050       4.01591311
C       -1.98437046       1.47022467       3.13448072
C       -1.79040131       1.79040131       1.79040131
C       -2.40583911       2.92090618       1.25075734
C       -3.20017919       3.67578677       2.12016879
N       -3.93180222       4.82119026       1.91743836
N       -6.53360567       9.18439520       2.86061479
C       -7.18520568      10.42512443       3.04961333
C       -7.96663321      11.01716138       2.04847336
C       -8.57344580      12.26118951       2.24516222
C       -8.40231997      12.92794800       3.45019515
C       -7.63213585      12.35966194       4.46157590
C       -7.01743123      11.10624200       4.27607764
C       -6.21163423      10.53508122       5.41265497
H       -4.72615163       7.52684502       1.50193140
H       -6.03982018       6.38806590       1.10536366
H       -1.50821630       0.59209232       3.56598177
H       -2.28869116       3.21101681       0.21443907
H       -5.92738409       8.86604094       3.60653228
H       -8.11383873      10.54229143       1.08346269
H       -9.16996499      12.69452544       1.44651881
H       -7.50893048      12.89251643       5.40220478
H       -5.16503036      10.41589687       5.11543105
H       -6.62148548       9.56711119       5.71824481
H       -6.23215176      11.18866320       6.29151479
C       -9.02082911      14.21233845       3.65363466
C       -9.53883051      15.28801545       3.82401525
Br     -10.37639496      17.02729418       4.09950625
O        4.88890408      -1.89848028      10.00175145
C        5.51777698      -2.26837096       9.01209502
C        4.90606506      -2.13031006       7.62516453
S        5.15928591      -3.61954714       6.61002252
C        4.24607295      -3.17433154       5.21518858
N        4.09502683      -4.05160416       4.18132674
H        4.47079089      -4.98440208       4.12006904
C        3.32136138      -3.43574471       3.24163209
N        2.92403543      -3.94766299       2.06337072
C        2.15010598      -3.07068222       1.36828765
C        1.79040131      -1.79040131       1.79040131
C        2.23833861      -1.31523526       3.02392876
C        3.03874260      -2.18231246       3.77507969
N        3.63256798      -2.03262609       5.00523677
N        6.81726922      -2.75142086       9.00992557
C        7.71030658      -2.84748012      10.10215675
C        7.44006958      -2.25116964      11.34102873
C        8.35353735      -2.32981415      12.39644604
C        9.55169346      -3.00775340      12.22101627
C        9.84274737      -3.61061941      11.00000692
C        8.92980336      -3.53992591       9.93002160
C        9.29273131      -4.22661231       8.64002680
H        5.35695461      -1.25910905       7.13886440
H        3.83174669      -1.95534316       7.74615988
H        1.80779503      -3.45066143       0.40783392
H        1.98579499      -0.33103643       3.39731562
H        7.12498208      -3.14552691       8.12944833
H        6.52502373      -1.69506380      11.51950533
H        8.11490014      -1.85265724      13.34345187
H       10.78477824      -4.14119446      10.87767899
H        9.37144379      -3.49620722       7.82870726
H        8.53967594      -4.97985337       8.38731218
H       10.25631363      -4.74244720       8.71356893
C       10.49746370      -3.08521647      13.30412205
C       11.28954628      -3.15009179      14.21122313
Br      12.57027681      -3.25498970      15.67792887
C       -0.00445707       0.01189536      -1.78238275
H       -0.66409135       0.67374010      -2.43557963
H        0.65740317      -0.63156657      -2.45157240
C       -0.90989263      -0.90692880      -0.91072765
C        0.90977584       0.90977584      -0.90977584
C       -0.00465871       1.77757030       0.00794375
H       -0.66225468       2.44313916      -0.64384735
H        0.64322798       2.43503045       0.67728295
C       -1.78241447       0.00034974      -0.00472694
H       -2.45427497      -0.65498947       0.64260836
H       -2.43311707       0.67328779      -0.65473579
C       -0.91132561       0.90220522       0.91563759
C       -0.01476271      -0.02253852       1.78660255
H       -0.67934791      -0.69751639       2.42135241
H        0.63392994       0.61504881       2.47327442
C        0.01484550      -1.77751727      -0.01636693
H        0.67870853      -2.42144646      -0.68295456
H       -0.62264859      -2.45592969       0.64226336
C        1.78714474       0.01002794       0.00389507
H        2.44202412       0.67113390       0.66197326
H        2.45385902      -0.65136977      -0.64189061
C        0.91606151      -0.90478549       0.90901405
