158
Properties=species:S:1:pos:R:3 pbc="F F F"
O        4.85632060       1.91913980     -10.01367541
C        5.49064797       2.28250998      -9.02508500
C        4.88395799       2.14131633      -7.63626532
S        5.14725407       3.62542032      -6.61618117
C        4.23786146       3.17825563      -5.21947599
N        4.09450529       4.05195276      -4.18149969
H        4.47426955       4.98297992      -4.11801255
C        3.32214260       3.43542145      -3.24117412
N        2.93161754       3.94417688      -2.05927473
C        2.15695609       3.06751562      -1.36460415
C        1.79040131       1.79040131      -1.79040131
C        2.23146317       1.31841711      -3.02762235
C        3.03233369       2.18529468      -3.77850638
N        3.62060689       2.03818555      -5.01163840
N        6.79207518       2.76032579      -9.02621468
C        7.68109995       2.85720095     -10.12164255
C        7.40348932       2.26697933     -11.36179930
C        8.31302178       2.34620958     -12.42056618
C        9.51459579       3.01862000     -12.24724734
Br      10.75053200       3.12102963     -13.67331657
C        9.81297771       3.61538547     -11.02501051
C        8.90405954       3.54404527      -9.95164606
C        9.27492922       4.22406310      -8.66037811
H        5.33328075       1.26635868      -7.15528863
H        3.80846588       1.97115347      -7.75363039
H        1.82003874       3.44499126      -0.40126039
H        1.97345693       0.33675339      -3.40393672
H        7.10490695       3.14964057      -8.14540980
H        6.48549989       1.71527593     -11.53881704
H        8.06866262       1.87383614     -13.36851048
H       10.75762335       4.14167650     -10.90435183
H        9.35395347       3.49008318      -7.85232162
H        8.52593719       4.97929677      -8.40160752
H       10.24028011       4.73631727      -8.73573237
O       -8.04857573      -7.87473263      -0.86582745
C       -7.17204754      -7.89847785      -1.72771756
C       -6.08974072      -6.82834110      -1.74345783
S       -5.76619212      -6.20146712      -3.42119633
C       -4.63340718      -4.95444402      -3.04774188
N       -4.15131421      -4.14343536      -4.03320816
H       -4.38330509      -4.17896249      -5.01299444
C       -3.30047797      -3.25569032      -3.44256988
N       -2.61014055      -2.27467759      -4.05025101
C       -1.86108071      -1.56285286      -3.16514227
C       -1.79040131      -1.79040131      -1.79040131
C       -2.52956030      -2.82788496      -1.22005737
C       -3.31539268      -3.58884517      -2.09189690
N       -4.14687147      -4.65901940      -1.86453997
N       -7.00603324      -8.88285394      -2.68972847
C       -7.73704564     -10.08415662      -2.83874118
C       -8.63263008     -10.53822423      -1.86141364
C       -9.31881028     -11.74664634      -2.01434092
C       -9.11350617     -12.51599395      -3.15096301
Br     -10.03282210     -14.15421185      -3.35784426
C       -8.23021327     -12.08552806      -4.13763237
C       -7.53464385     -10.86921113      -3.99589590
C       -6.60666067     -10.44822823      -5.10448153
H       -5.17781328      -7.25945825      -1.31765653
H       -6.42388404      -6.00119221      -1.10817349
H       -1.28792243      -0.75780029      -3.62056767
H       -2.51066122      -3.04398766      -0.15949816
H       -6.32446823      -8.66833597      -3.40715311
H       -8.81175694      -9.98012874      -0.94770717
H      -10.00351033     -12.07208261      -1.23541631
H       -8.08123678     -12.69764137      -5.02477354
H       -5.57819618     -10.38223494      -4.73592715
H       -6.91658005      -9.47994327      -5.51031816
H       -6.61447624     -11.16517071      -5.93268281
O       -7.43097711       8.45622474       0.90193396
C       -6.63459602       8.33309263       1.83055430
C       -5.64786701       7.17416461       1.83950803
S       -5.52481291       6.38778982       3.47625283
C       -4.46803116       5.08024268       3.08731924
N       -4.14156458       4.15303277       4.03336038
H       -4.45518675       4.12955604       4.99051923
C       -3.31659147       3.24453209       3.43761461
N       -2.76388204       2.16074060       4.01044651
C       -1.99985024       1.45963997       3.12958564
C       -1.79040131       1.79040131       1.79040131
C       -2.39030444       2.93153674       1.25566145
C       -3.18570945       3.68572694       2.12469835
N       -3.90479282       4.83972982       1.92590821
N       -6.47484624       9.21811151       2.88565790
C       -7.11668654      10.46306519       3.08019171
C       -7.88323666      11.07159250       2.07743879
C       -8.48033465      12.31935596       2.28010693
C       -8.31430206      12.97332410       3.49283697
Br      -9.11289185      14.66395114       3.76803521
C       -7.55887041      12.38855587       4.50594741
C       -6.95407225      11.13122438       4.31445424
C       -6.16422520      10.54209244       5.45305279
H       -4.67019295       7.55640099       1.52833413
H       -5.99057338       6.43363886       1.10903750
H       -1.53587763       0.57315396       3.55725880
H       -2.26081873       3.23010700       0.22322132
H       -5.87857697       8.88723631       3.63414404
H       -8.02581653      10.60705500       1.10672132
H       -9.06534792      12.76559969       1.48006163
H       -7.43952530      12.91152211       5.45260427
H       -5.11604053      10.41590256       5.16441519
H       -6.58583737       9.57520476       5.74579935
H       -6.18689869      11.18768726       6.33774381
O        4.94392600      -1.86404972       9.98116010
C        5.56353244      -2.24489526       8.98981525
C        4.94334118      -2.11205385       7.60614462
S        5.17957143      -3.60980950       6.59947463
C        4.25991589      -3.16782863       5.20784855
N        4.09590786      -4.05102268       4.18102719
H        4.46493096      -4.98674969       4.12358138
C        3.32004531      -3.43627850       3.24241437
N        2.91125603      -3.95343488       2.07037824
C        2.13856003      -3.07592576       1.37459007
C        1.79040131      -1.79040131       1.79040131
C        2.24992732      -1.30996634       3.01760897
C        3.04954526      -2.17737347       3.76921601
N        3.65272911      -2.02341905       4.99428267
N        6.85968419      -2.73678334       8.98214813
C        7.75946587      -2.83153252      10.06894505
C        7.50170608      -2.22503389      11.30552797
C        8.42178439      -2.30275710      12.35525605
C        9.61410762      -2.99000717      12.17634834
Br      10.86429322      -3.09050557      13.59007942
C        9.89276063      -3.60308195      10.95753111
C        8.97305313      -3.53341146       9.89328628
C        9.32254058      -4.23125845       8.60557141
H        5.39678993      -1.24725008       7.11088806
H        3.87107884      -1.92896399       7.73320691
H        1.78715790      -3.46005102       0.41908147
H        2.00659121      -0.32156923       3.38598660
H        7.15872484      -3.13891882       8.10231366
H        6.59167711      -1.66151817      11.48639757
H        8.19283059      -1.81759497      13.30058368
H       10.83032820      -4.14087213      10.83245136
H        9.40066502      -3.50690815       7.78878510
H        8.56270691      -4.98104735       8.36308722
H       10.28309156      -4.75313154       8.67610665
C       -0.00445707       0.01189536      -1.78238275
H       -0.66409135       0.67374010      -2.43557963
H        0.65740317      -0.63156657      -2.45157240
C       -0.90989263      -0.90692880      -0.91072765
C        0.90977584       0.90977584      -0.90977584
C       -0.00465871       1.77757030       0.00794375
H       -0.66225468       2.44313916      -0.64384735
H        0.64322798       2.43503045       0.67728295
C       -1.78241447       0.00034974      -0.00472694
H       -2.45427497      -0.65498947       0.64260836
H       -2.43311707       0.67328779      -0.65473579
C       -0.91132561       0.90220522       0.91563759
C       -0.01476271      -0.02253852       1.78660255
H       -0.67934791      -0.69751639       2.42135241
H        0.63392994       0.61504881       2.47327442
C        0.01484550      -1.77751727      -0.01636693
H        0.67870853      -2.42144646      -0.68295456
H       -0.62264859      -2.45592969       0.64226336
C        1.78714474       0.01002794       0.00389507
H        2.44202412       0.67113390       0.66197326
H        2.45385902      -0.65136977      -0.64189061
C        0.91606151      -0.90478549       0.90901405
