133
Properties=species:S:1:pos:R:3 pbc="F F F"
C        0.00000000       0.00000000       0.00000000
C        0.88114670       0.88114670      -0.88114670
C        1.61463471       1.92049754      -0.31132690
C        2.41736142       2.73736958      -1.11702390
C        2.47929574       2.51794901      -2.49648724
C        1.73416630       1.46842525      -3.05743018
C        0.94082316       0.64752374      -2.25220168
C        3.28061796       3.36387766      -3.42986602
O        2.91253519       3.44371460      -4.60461916
C        4.53909129       4.08488247      -2.98610625
C        4.20215564       5.47337317      -2.44545717
C        5.43784669       3.28889779      -2.05428456
O        5.60646056       3.62373136      -0.88117830
C        6.14582839       2.06966859      -2.56751250
C        7.06367869       1.43221516      -1.71702421
C        7.74454251       0.28404111      -2.13292351
C        7.50596236      -0.23800623      -3.40108587
C        6.60356046       0.38539725      -4.25963599
C        5.93088721       1.54205926      -3.84827665
H        1.56467610       2.10916582       0.75896966
H        2.96457618       3.54092912      -0.63432469
H        1.76552225       1.28487570      -4.13064879
H        0.37175850      -0.16030014      -2.70573545
H        5.13976996       4.25837692      -3.89067916
H        3.63017039       5.43364834      -1.51435613
H        3.60684473       6.03842344      -3.17048797
H        5.11641712       6.04151527      -2.24086982
H        7.25860726       1.82872924      -0.72155844
H        8.45382206      -0.19193195      -1.46011307
H        6.41464920      -0.01887731      -5.25192082
H        5.24526228       1.99689351      -4.55788449
C        8.19516959      -1.42772573      -3.82905886
C        8.77238065      -2.42411582      -4.18748624
Br       9.70568212      -4.03519432      -4.76703300
C       -0.88114670      -0.88114670      -0.88114670
C       -0.91087350      -2.25954986      -0.67603579
C       -1.71075203      -3.07313147      -1.48787140
C       -2.47577433      -2.50623556      -2.51172210
C       -2.43526382      -1.11658113      -2.70817678
C       -1.64460579      -0.30391943      -1.89202336
C       -3.32572853      -3.30498639      -3.44364672
O       -3.54778407      -2.84605898      -4.56702590
C       -3.94607354      -4.62775794      -3.03624853
C       -2.99592381      -5.78467007      -3.34039209
C       -4.49356328      -4.66834538      -1.61912038
O       -3.98226491      -5.37744094      -0.75166438
C       -5.68817088      -3.83444629      -1.26039231
C       -6.24215702      -3.99124357       0.02048253
C       -7.34722908      -3.23280673       0.41852868
C       -7.90122259      -2.30688653      -0.46093288
C       -7.36806445      -2.14325875      -1.73727050
C       -6.26937948      -2.91122812      -2.14061552
H       -0.31020033      -2.71379700       0.10912508
H       -1.69744087      -4.14213678      -1.30025234
H       -3.02032664      -0.65697238      -3.50374772
H       -1.62735687       0.77013891      -2.05997585
H       -4.81759355      -4.78256048      -3.68867201
H       -2.09564765      -5.76237715      -2.72015006
H       -2.67256945      -5.75684327      -4.38634342
H       -3.48860989      -6.74713042      -3.16306190
H       -5.81762568      -4.71062937       0.71936011
H       -7.76302228      -3.37245488       1.41347397
H       -7.79842646      -1.42120866      -2.42805757
H       -5.89684865      -2.75409721      -3.14909442
C       -9.03135424      -1.51424796      -0.05090052
C       -9.97783950      -0.85041316       0.29250159
Br     -11.50822612       0.22295157       0.84775375
C       -0.88114670       0.88114670       0.88114670
C       -0.55716452       1.06494109       2.22435354
C       -1.36766434       1.86509852       3.03899203
C       -2.50866910       2.47555409       2.50950880
C       -2.82401800       2.28073906       1.15526467
C       -2.01006570       1.49019784       0.34028505
C       -3.44445472       3.31310650       3.31680042
O       -4.62086913       3.38716196       2.95283786
C       -2.98322626       4.09490532       4.53194843
C       -3.08718589       3.24004885       5.79375123
C       -1.62909817       4.76861822       4.38331265
O       -0.65535976       4.40961802       5.04639244
C       -1.46617714       5.90250163       3.41433071
C       -0.23730372       6.58189236       3.39372198
C       -0.01981721       7.63800787       2.50368205
C       -1.02911227       8.01686245       1.62306728
C       -2.25615565       7.35784716       1.63459089
C       -2.47866860       6.30852655       2.53402797
H        0.32096905       0.58484972       2.65099158
H       -1.08452447       1.97415787       4.08114765
H       -3.71141016       2.74389694       0.72573964
H       -2.27115397       1.35211679      -0.70607695
H       -3.70188993       4.91539532       4.67154078
H       -2.38569533       2.40124076       5.79123876
H       -4.09440924       2.82302141       5.89832549
H       -2.87370004       3.83915924       6.68594293
H        0.56172699       6.29477925       4.07584268
H        0.93776879       8.15310187       2.50667011
H       -3.04798203       7.65120183       0.94850884
H       -3.45550198       5.83337081       2.51116749
C       -0.80528553       9.09551606       0.69570113
C       -0.61783064       9.99888846      -0.08096803
Br      -0.31473194      11.45956522      -1.33677636
C        0.88114670      -0.88114670       0.88114670
C        2.26226801      -0.89107319       0.69311794
C        3.07395033      -1.70478705       1.49301751
C        2.50075502      -2.51569709       2.47727988
C        1.10810662      -2.49699609       2.65491903
C        0.29934045      -1.67796125       1.86324689
C        3.28958822      -3.43789598       3.34687744
O        2.72413098      -4.43596409       3.80077389
C        4.73541488      -3.16185057       3.71281456
C        5.67877744      -3.76729472       2.67491382
C        5.05077281      -1.70778500       4.02247123
O        5.78162742      -1.03798361       3.29175920
C        4.46891850      -1.06638171       5.24770927
C        4.88070886       0.23711969       5.56932889
C        4.36404323       0.89322095       6.69068485
C        3.42603473       0.25117062       7.49417790
C        3.01141278      -1.04402879       7.19315212
C        3.53768991      -1.70594199       6.07759122
H        2.71874877      -0.27412939      -0.07800591
H        4.14323601      -1.68943360       1.30716038
H        0.64254949      -3.12538965       3.41310760
H       -0.77700701      -1.67738724       2.01681358
H        4.93497307      -3.70734974       4.64650322
H        5.60009487      -3.27778679       1.70029319
H        5.46067529      -4.82999405       2.52508680
H        6.72120793      -3.67744129       3.00015299
H        5.61249772       0.75200060       4.94839783
H        4.69911863       1.90101027       6.92389483
H        2.27901147      -1.54979394       7.81888729
H        3.19042418      -2.71844114       5.89117496
C        2.88141107       0.92769439       8.64278604
C        2.42528877       1.49428305       9.60474536
Br       1.68777757       2.41040900      11.16015222
