146
Properties=species:S:1:pos:R:3 pbc="F F F"
C        1.79136379       1.79136379      -1.79136379
C        1.33708424       3.04469847      -2.19145153
C        2.14897765       3.84966961      -2.99532358
C        3.41723761       3.40734101      -3.40477158
C        3.86062946       2.14275729      -2.99490271
C        3.04753885       1.33721064      -2.18867236
C        4.23915500       4.32422912      -4.25912380
O        3.79898557       5.44370340      -4.52648118
C        5.58606229       3.87201326      -4.78005946
S        6.85643763       4.15705896      -3.51453946
C        8.24456908       3.56079571      -4.34136088
N        9.47118181       3.62646802      -3.74827875
H        9.68105537       4.00609013      -2.83867859
C       10.36799342       3.08507948      -4.62076529
N       11.69249170       2.94928956      -4.43379696
C       12.29712246       2.37589656      -5.50851241
C       11.65840662       1.96591491      -6.67893695
C       10.27873686       2.13142570      -6.81106105
C        9.61212727       2.71558492      -5.72866133
N        8.28393056       3.01117968      -5.53340653
H        0.35920966       3.40752958      -1.88496307
H        1.78453531       4.83018392      -3.29939820
H        4.83529795       1.75476061      -3.27566321
H        3.40554586       0.35957906      -1.87439707
H        5.81638712       4.46137476      -5.67486722
H        5.54514880       2.82447608      -5.09233705
H       13.37220985       2.24944675      -5.39376579
H        9.73650222       1.83092492      -7.69897627
C       12.41633633       1.37293424      -7.75015891
C       13.05110246       0.87631292      -8.64730729
Br      14.07746560       0.07331826     -10.09792036
C       -1.79136379      -1.79136379      -1.79136379
C       -1.44943949      -3.12445035      -1.99934441
C       -2.26136106      -3.92855631      -2.80405346
C       -3.41738378      -3.40598544      -3.40598097
C       -3.74826002      -2.06178602      -3.18824342
C       -2.93533835      -1.25695856      -2.38112494
C       -4.24715021      -4.32551605      -4.24984166
O       -3.91732537      -5.50917581      -4.34266897
C       -5.46781022      -3.79809342      -4.97223137
S       -6.89012138      -3.79424951      -3.84366517
C       -8.10189704      -3.15661116      -4.88821747
N       -9.38357405      -3.02078329      -4.44157122
H       -9.73241239      -3.26514773      -3.52826396
C      -10.11198627      -2.49487994      -5.46697197
N      -11.42325563      -2.19805859      -5.45426399
C      -11.83795764      -1.69560421      -6.64796958
C      -11.03447206      -1.49777954      -7.77100689
C       -9.67808892      -1.82327593      -7.71985877
C       -9.20429534      -2.34202182      -6.51005637
N       -7.94892983      -2.75155788      -6.12802907
H       -0.55971583      -3.54996790      -1.54201857
H       -1.98587947      -4.97136166      -2.95687631
H       -4.63455666      -1.60870598      -3.62245914
H       -3.20589192      -0.21646924      -2.21716082
H       -5.67031272      -4.46186428      -5.82045210
H       -5.26974814      -2.80540784      -5.38680595
H      -12.89645020      -1.44305399      -6.67591820
H       -9.01284362      -1.68970972      -8.56385008
C      -11.59855619      -0.95930632      -8.98156696
C      -12.07097664      -0.50833501      -9.99541102
Br     -12.83484057       0.22084747     -11.63471113
C       -1.79136379       1.79136379       1.79136379
C       -3.16150514       1.55523191       1.85649721
C       -3.96394622       2.36240021       2.66762441
C       -3.40327353       3.40964119       3.41643547
C       -2.02243928       3.63592402       3.33992616
C       -1.21880097       2.82639742       2.52822346
C       -4.31985313       4.23098241       4.27167238
O       -5.51316213       3.92870642       4.32730161
C       -3.77804104       5.41056014       5.04953383
S       -3.07393044       4.83359107       6.62051455
C       -2.53663716       6.33185459       7.27823393
N       -1.96393289       6.36623775       8.51575794
H       -1.81174145       5.58289840       9.13118425
C       -1.63786073       7.66517339       8.77080406
N       -1.04986682       8.14513728       9.88057412
C       -0.87392994       9.49205551       9.81554597
C       -1.24423953      10.31060852       8.74841044
C       -1.84874469       9.75080291       7.62167602
C       -2.04849943       8.36628102       7.64159308
N       -2.59978224       7.51560632       6.71312821
H       -3.61631287       0.74913252       1.28625691
H       -5.03447375       2.16606618       2.71357750
H       -1.53575933       4.42629202       3.90367043
H       -0.14799112       3.01038507       2.48114578
H       -4.61072395       6.09531109       5.24659407
H       -3.04824904       5.96306630       4.45064659
H       -0.39968338       9.91759906      10.69813996
H       -2.15548983      10.34265838       6.76825521
C       -1.00517311      11.72950710       8.80474926
C       -0.80495499      12.91783466       8.85193302
Br      -0.48121922      14.83925983       8.92822518
C        1.79136379      -1.79136379       1.79136379
C        3.17657957      -1.67431043       1.72234425
C        3.97941015      -2.48073033       2.53383036
C        3.40392904      -3.40851305       3.41690811
C        2.00788990      -3.51576719       3.47463236
C        1.20401313      -2.70694653       2.66246219
C        4.32283800      -4.23559783       4.26407210
O        5.53711283      -4.03783789       4.19421943
C        3.75781022      -5.29403972       5.18628506
S        3.24696272      -4.52927856       6.75179477
C        2.64948987      -5.91431700       7.58291880
N        2.18900891      -5.79553098       8.86138868
H        2.15738306      -4.95382405       9.41461698
C        1.78150871      -7.03470139       9.25762809
N        1.25781772      -7.36731830      10.45044220
C        0.96674125      -8.69384577      10.52094441
C        1.17153255      -9.62713341       9.50459252
C        1.71665082      -9.21813790       8.28643489
C        2.03041791      -7.86012286       8.16583275
N        2.56434930      -7.14136416       7.12280331
H        3.64316408      -0.96173821       1.04680001
H        5.06224588      -2.37792869       2.47394286
H        1.51037966      -4.21040433       4.14493779
H        0.12181047      -2.79756035       2.72015117
H        4.54573078      -6.03208945       5.37480888
H        2.93442564      -5.82629502       4.70124127
H        0.54008370      -9.00128779      11.47405090
H        1.89610235      -9.90316400       7.46713706
C        0.82274944     -11.00948782       9.70719222
C        0.53064359     -12.16720963       9.87686946
Br       0.05833312     -14.03914789      10.15122322
C       -0.00445707       0.01189536      -1.78238275
H       -0.66409135       0.67374010      -2.43557963
H        0.65740317      -0.63156657      -2.45157240
C       -0.90989263      -0.90692880      -0.91072765
C        0.90977584       0.90977584      -0.90977584
C       -0.00465871       1.77757030       0.00794375
H       -0.66225468       2.44313916      -0.64384735
H        0.64322798       2.43503045       0.67728295
C       -1.78241447       0.00034974      -0.00472694
H       -2.45427497      -0.65498947       0.64260836
H       -2.43311707       0.67328779      -0.65473579
C       -0.91132561       0.90220522       0.91563759
C       -0.01476271      -0.02253852       1.78660255
H       -0.67934791      -0.69751639       2.42135241
H        0.63392994       0.61504881       2.47327442
C        0.01484550      -1.77751727      -0.01636693
H        0.67870853      -2.42144646      -0.68295456
H       -0.62264859      -2.45592969       0.64226336
C        1.78714474       0.01002794       0.00389507
H        2.44202412       0.67113390       0.66197326
H        2.45385902      -0.65136977      -0.64189061
C        0.91606151      -0.90478549       0.90901405
