138
Properties=species:S:1:pos:R:3 pbc="F F F"
C        1.79136379       1.79136379      -1.79136379
C        1.33708424       3.04469847      -2.19145153
C        2.14897765       3.84966961      -2.99532358
C        3.41723761       3.40734101      -3.40477158
C        3.86062946       2.14275729      -2.99490271
C        3.04753885       1.33721064      -2.18867236
C        4.23915500       4.32422912      -4.25912380
O        3.79898557       5.44370340      -4.52648118
C        5.58606229       3.87201326      -4.78005946
S        6.85643763       4.15705896      -3.51453946
C        8.24456908       3.56079571      -4.34136088
N        9.47118181       3.62646802      -3.74827875
H        9.68105537       4.00609013      -2.83867859
C       10.36799342       3.08507948      -4.62076529
N       11.69249170       2.94928956      -4.43379696
C       12.29712246       2.37589656      -5.50851241
C       11.65840662       1.96591491      -6.67893695
Br      12.65222053       1.18838576      -8.08354647
C       10.27873686       2.13142570      -6.81106105
C        9.61212727       2.71558492      -5.72866133
N        8.28393056       3.01117968      -5.53340653
H        0.35920966       3.40752958      -1.88496307
H        1.78453531       4.83018392      -3.29939820
H        4.83529795       1.75476061      -3.27566321
H        3.40554586       0.35957906      -1.87439707
H        5.81638712       4.46137476      -5.67486722
H        5.54514880       2.82447608      -5.09233705
H       13.37220985       2.24944675      -5.39376579
H        9.73650222       1.83092492      -7.69897627
C       -1.79136379      -1.79136379      -1.79136379
C       -1.51603741      -3.15087389      -1.90632295
C       -2.32790148      -3.95458867      -2.71148068
C       -3.41734810      -3.40536397      -3.40663812
C       -3.68155231      -2.03481565      -3.28192149
C       -2.86878102      -1.23029724      -2.47434359
C       -4.25152147      -4.32542421      -4.24556224
O       -3.98591752      -5.52868026      -4.25457237
C       -5.39855674      -3.77478520      -5.06479307
S       -6.87767012      -3.62837325      -4.02199269
C       -7.99193700      -2.98692344      -5.16786522
N       -9.28608570      -2.75592218      -4.80392069
H       -9.69768790      -2.92785067      -3.90028552
C       -9.92599819      -2.25109439      -5.89674561
N      -11.21671470      -1.88301173      -5.97585179
C      -11.53608506      -1.42835933      -7.21708704
C      -10.66252146      -1.33969357      -8.30104345
Br     -11.27261523      -0.68706266      -9.96447487
C       -9.33196670      -1.73513816      -8.15411875
C       -8.95550755      -2.20832319      -6.89254278
N       -7.74853001      -2.66296124      -6.41702553
H       -0.67857436      -3.59717444      -1.37595349
H       -2.10507918      -5.01793143      -2.79110683
H       -4.51526961      -1.55989391      -3.79055826
H       -3.08743155      -0.16888947      -2.38320096
H       -5.59246062      -4.47432912      -5.88583937
H       -5.12129428      -2.81992399      -5.52074366
H      -12.57515805      -1.12052854      -7.31973580
H       -8.61512031      -1.68690665      -8.96437645
C       -1.79136379       1.79136379       1.79136379
C       -3.14601512       1.50134054       1.92587859
C       -3.94829966       2.30887839       2.73679278
C       -3.40300168       3.41020262       3.41614589
C       -2.03772268       3.69034553       3.27022124
C       -1.23416444       2.88047857       2.45877885
C       -4.31799402       4.22904654       4.27546736
O       -5.49365161       3.87996247       4.39555607
C       -3.79607179       5.46294466       4.97911856
S       -3.00258900       4.98479094       6.54065612
C       -2.50406325       6.53137610       7.11128632
N       -1.88227351       6.64346346       8.32019161
H       -1.67058307       5.89469086       8.96055016
C       -1.60270464       7.96474166       8.50639188
N       -0.99038091       8.51667506       9.56852225
C       -0.87611525       9.86565103       9.43976515
C       -1.32590345      10.62080896       8.35654608
Br      -1.09091997      12.49420730       8.33902549
C       -1.95194014       9.98775176       7.28153170
C       -2.09022508       8.59828306       7.36786538
N       -2.64220223       7.68573792       6.50057662
H       -3.58868968       0.65290955       1.41010307
H       -5.00641502       2.07024422       2.83745820
H       -1.56282001       4.52412053       3.77878124
H       -0.17527668       3.10675165       2.35749365
H       -4.64882998       6.12029276       5.18350637
H       -3.11664416       6.01881675       4.32650102
H       -0.38443955      10.34862787      10.28235497
H       -2.31949493      10.52858038       6.41832811
C        1.79136379      -1.79136379       1.79136379
C        3.14667504      -1.50324975       1.92330947
C        3.94896487      -2.31077411       2.73423186
C        3.40301099      -3.41018208       3.41615712
C        2.03706968      -3.68841701       3.27280276
C        1.23350896      -2.87856237       2.46135052
C        4.31806640      -4.22911316       4.27532836
O        5.49445401      -3.88168104       4.39303511
C        3.79531920      -5.46109331       4.98172249
S        3.00502705      -4.97926157       6.54374744
C        2.50498000      -6.52417230       7.11757338
N        1.88490736      -6.63339931       8.32762190
H        1.67538807      -5.88329759       8.96713843
C        1.60356726      -7.95394633       8.51632460
N        0.99204427      -8.50326230       9.58027165
C        0.87547116      -9.85225732       9.45380294
C        1.32238507     -10.60980823       8.37106518
Br       1.08444954     -12.48286186       8.35684136
C        1.94772752      -9.97941022       7.29408587
C        2.08831673      -8.59002637       7.37803042
N        2.64036108      -7.67970093       6.50845477
H        3.58986668      -0.65631848       1.40551714
H        5.00760770      -2.07363812       2.83287162
H        1.56166161      -4.52065318       3.78340699
H        0.17411207      -3.10333706       2.36207285
H        4.64736853      -6.11945430       5.18580628
H        3.11400464      -6.01692053       4.33103676
H        0.38436023     -10.33314839      10.29791377
H        2.31308696     -10.52216019       6.43115626
C       -0.00445707       0.01189536      -1.78238275
H       -0.66409135       0.67374010      -2.43557963
H        0.65740317      -0.63156657      -2.45157240
C       -0.90989263      -0.90692880      -0.91072765
C        0.90977584       0.90977584      -0.90977584
C       -0.00465871       1.77757030       0.00794375
H       -0.66225468       2.44313916      -0.64384735
H        0.64322798       2.43503045       0.67728295
C       -1.78241447       0.00034974      -0.00472694
H       -2.45427497      -0.65498947       0.64260836
H       -2.43311707       0.67328779      -0.65473579
C       -0.91132561       0.90220522       0.91563759
C       -0.01476271      -0.02253852       1.78660255
H       -0.67934791      -0.69751639       2.42135241
H        0.63392994       0.61504881       2.47327442
C        0.01484550      -1.77751727      -0.01636693
H        0.67870853      -2.42144646      -0.68295456
H       -0.62264859      -2.45592969       0.64226336
C        1.78714474       0.01002794       0.00389507
H        2.44202412       0.67113390       0.66197326
H        2.45385902      -0.65136977      -0.64189061
C        0.91606151      -0.90478549       0.90901405
