157
Properties=species:S:1:pos:R:3 pbc="F F F"
C        0.00000000       0.00000000       0.00000000
C        0.88159817       0.88159817      -0.88159817
C        1.63545345       0.30153904      -1.90197565
C        2.44529191       1.10501750      -2.70994317
C        2.50175738       2.48907346      -2.49038927
C        1.72705348       3.06409200      -1.47533179
C        0.92108290       2.25864204      -0.66594523
C        3.35438382       3.37396706      -3.32771917
O        3.02567663       4.53280178      -3.55783208
N        4.53958757       2.80771503      -3.78474552
N        5.48876849       3.63952430      -4.43368783
C        5.62749877       3.27820036      -5.85406584
H        4.66273334       3.33145109      -6.37493684
C        6.28029446       1.93193892      -6.04099994
C        7.18088088       2.14113120      -7.21528541
O        7.62000621       1.18443665      -7.83998930
N        7.40869476       3.49109767      -7.38683315
C        8.36627841       4.04909685      -8.30361400
C        9.19894100       3.23351007      -9.09322928
C       10.13834193       3.77063295      -9.98646438
C       10.27098242       5.14571104     -10.10756473
C        9.47152130       5.98280801      -9.34333478
C        8.53158995       5.43764394      -8.45483131
C        6.57899648       4.22856657      -6.55884141
O        6.52054921       5.44221462      -6.39749910
H        1.59190632      -0.77021131      -2.08055529
H        3.00048841       0.64001559      -3.52011653
H        1.75383284       4.13995995      -1.30890274
H        0.32892002       2.71413399       0.12437311
H        4.88512398       1.96797412      -3.32590478
H        5.13162169       4.60984485      -4.39020780
H        5.54051069       1.15280106      -6.24664844
H        6.89814621       1.62838984      -5.18810415
H        9.15984497       2.14957759      -9.04863163
H       10.75693078       3.09815841     -10.57595300
H        9.56364045       7.06347754      -9.42267284
H        7.94319444       6.15610349      -7.89243529
C       11.23552719       5.70105556     -11.02126373
C       12.04333343       6.16615659     -11.78648664
Br      13.34948780       6.91818562     -13.02378737
C       -0.88159817      -0.88159817      -0.88159817
C       -0.86183343      -2.26597418      -0.71116052
C       -1.66601466      -3.07660350      -1.51763441
C       -2.48568959      -2.49794938      -2.49758113
C       -2.51215087      -1.10593300      -2.64839340
C       -1.70440687      -0.29738085      -1.84388243
C       -3.35148450      -3.32908333      -3.37550221
O       -4.42190988      -2.90088572      -3.79351489
N       -2.84532948      -4.58191654      -3.70480210
N       -3.52360713      -5.35832246      -4.68005105
C       -4.11282889      -6.56673821      -4.08019786
H       -4.79686901      -6.31182422      -3.26042805
C       -3.06403963      -7.55429073      -3.63490298
C       -3.64858585      -8.87727732      -4.01143432
O       -3.21971634      -9.91038436      -3.51433147
N       -4.63244442      -8.69309596      -4.96108521
C       -5.28268715      -9.75448480      -5.68181730
C       -4.92608790     -11.10366363      -5.49592881
C       -5.55288789     -12.14398164      -6.19856973
C       -6.55442023     -11.85625680      -7.11358117
C       -6.93107888     -10.53864681      -7.32793840
C       -6.30174947      -9.50400098      -6.61831474
C       -4.90892653      -7.34463159      -5.11284634
O       -5.68303945      -6.79155861      -5.88566488
H       -0.23242377      -2.72020996       0.05038343
H       -1.66157802      -4.15009172      -1.34895079
H       -3.15764135      -0.64839212      -3.39666206
H       -1.72684413       0.78211505      -1.97395181
H       -1.85100755      -4.75349702      -3.57449832
H       -4.29909482      -4.78192279      -5.05065672
H       -2.88893593      -7.49424972      -2.55677454
H       -2.11054530      -7.44073421      -4.16336069
H       -4.14676260     -11.40735373      -4.80393786
H       -5.24282944     -13.17041120      -6.01780154
H       -7.71227995     -10.29376264      -8.04374824
H       -6.65119399      -8.50033873      -6.84020050
C       -7.19855019     -12.92071523      -7.83858105
C       -7.73800904     -13.81219917      -8.44576845
Br      -8.61026837     -15.25365330      -9.42753912
C       -0.88159817       0.88159817       0.88159817
C       -1.29197895       2.13092056       0.41606863
C       -2.09748718       2.94177442       1.22099097
C       -2.48657641       2.50050823       2.49413546
C       -2.08455204       1.23703906       2.94488617
C       -1.27587703       0.42945515       2.14033798
C       -3.33992713       3.33735536       3.37878756
O       -4.12791202       2.82313071       4.16526776
N       -3.15014370       4.71088735       3.27101706
N       -3.79168656       5.56488759       4.20540647
C       -4.81445106       6.39600748       3.54930642
H       -5.55939549       5.77726151       3.03246428
C       -4.21091977       7.42035359       2.62195996
C       -5.04965306       8.63586762       2.85177680
O       -5.04939087       9.55344781       2.04159349
N       -5.71034994       8.51887470       4.05740094
C       -6.46164832       9.57315618       4.68418475
C       -6.55075644      10.85839199       4.11653191
C       -7.27812094      11.89296120       4.72435712
C       -7.93354676      11.66559597       5.92511546
C       -7.86592890      10.41355166       6.51818352
C       -7.13932365       9.38285445       5.90188710
C       -5.55401267       7.24205029       4.57034150
O       -5.95277112       6.77595487       5.63153695
H       -0.99797751       2.47644197      -0.57216918
H       -2.43381519       3.89783584       0.82896951
H       -2.39552420       0.88117965       3.92599167
H       -0.96305243      -0.54705773       2.50268620
H       -2.29812679       5.05028270       2.83059339
H       -4.27249592       4.96286304       4.89631537
H       -4.26453777       7.09715556       1.57826686
H       -3.17324437       7.67095899       2.87043684
H       -6.05898801      11.11552575       3.18354043
H       -7.31824645      12.86802790       4.24476783
H       -8.37091965      10.21768777       7.46118340
H       -7.13350445       8.43213882       6.42608993
C       -8.67907641      12.72528076       6.55348930
C       -9.30345749      13.61276678       7.07975240
Br     -10.31302888      15.04775660       7.93067531
C        0.88159817      -0.88159817       0.88159817
C        1.12917111      -0.50736745       2.20242957
C        1.93735865      -1.31078731       3.01210662
C        2.50031955      -2.48642863       2.49447192
C        2.23077555      -2.86288745       1.17281428
C        1.42580690      -2.05626082       0.36360244
C        3.36734203      -3.36341392       3.32531409
O        3.39533038      -4.57608241       3.14489769
N        4.14961863      -2.71053489       4.27189460
N        5.13286226      -3.45330650       4.97581187
C        4.79480518      -3.56032337       6.40463641
H        3.80622717      -4.01560008       6.54729403
C        4.89900672      -2.23609689       7.11812972
C        5.50425633      -2.59684592       8.43619524
O        5.43626504      -1.82464350       9.38352363
N        6.11719233      -3.82925324       8.34018001
C        6.95241392      -4.40897487       9.35760045
C        7.24992372      -3.72445525      10.55130137
C        8.06737342      -4.28176279      11.54630306
C        8.61409098      -5.54348217      11.36668504
C        8.34781078      -6.24795543      10.20189788
C        7.52606651      -5.68501074       9.21298795
C        5.80584677      -4.42911883       7.13143887
O        6.19348020      -5.49655293       6.67022981
H        0.69132062       0.40020316       2.61113284
H        2.09292365      -1.02013351       4.04756337
H        2.65174874      -3.78230694       0.76863985
H        1.22856468      -2.35379314      -0.66367692
H        4.29815127      -1.70902643       4.17182519
H        5.13896019      -4.41042247       4.58229168
H        3.91659016      -1.77338775       7.24998229
H        5.56903699      -1.52693236       6.61867085
H        6.86629972      -2.73081889      10.76093557
H        8.26565881      -3.71348113      12.45190224
H        8.77026607      -7.23723927      10.04228549
H        7.36395488      -6.29685872       8.33091961
C        9.45552966      -6.11807247      12.38424434
C       10.16023457      -6.59929184      13.23645025
Br      11.29968279      -7.37738287      14.61439514
