149
Properties=species:S:1:pos:R:3 pbc="F F F"
C        0.00000000       0.00000000       0.00000000
C        0.88159817       0.88159817      -0.88159817
C        1.63545345       0.30153904      -1.90197565
C        2.44529191       1.10501750      -2.70994317
C        2.50175738       2.48907346      -2.49038927
C        1.72705348       3.06409200      -1.47533179
C        0.92108290       2.25864204      -0.66594523
C        3.35438382       3.37396706      -3.32771917
O        3.02567663       4.53280178      -3.55783208
N        4.53958757       2.80771503      -3.78474552
N        5.48876849       3.63952430      -4.43368783
C        5.62749877       3.27820036      -5.85406584
H        4.66273334       3.33145109      -6.37493684
C        6.28029446       1.93193892      -6.04099994
C        7.18088088       2.14113120      -7.21528541
O        7.62000621       1.18443665      -7.83998930
N        7.40869476       3.49109767      -7.38683315
C        8.36627841       4.04909685      -8.30361400
C        9.19894100       3.23351007      -9.09322928
C       10.13834193       3.77063295      -9.98646438
C       10.27098242       5.14571104     -10.10756473
Br      11.53547520       5.87375307     -11.30540005
C        9.47152130       5.98280801      -9.34333478
C        8.53158995       5.43764394      -8.45483131
C        6.57899648       4.22856657      -6.55884141
O        6.52054921       5.44221462      -6.39749910
H        1.59190632      -0.77021131      -2.08055529
H        3.00048841       0.64001559      -3.52011653
H        1.75383284       4.13995995      -1.30890274
H        0.32892002       2.71413399       0.12437311
H        4.88512398       1.96797412      -3.32590478
H        5.13162169       4.60984485      -4.39020780
H        5.54051069       1.15280106      -6.24664844
H        6.89814621       1.62838984      -5.18810415
H        9.15984497       2.14957759      -9.04863163
H       10.75693078       3.09815841     -10.57595300
H        9.56364045       7.06347754      -9.42267284
H        7.94319444       6.15610349      -7.89243529
C       -0.88159817      -0.88159817      -0.88159817
C       -0.85754173      -2.26637925      -0.71504717
C       -1.66171151      -3.07700219      -1.52153888
C       -2.48568866      -2.49791647      -2.49761497
C       -2.51640838      -1.10556777      -2.64450112
C       -1.70867556      -0.29700671      -1.83998789
C       -3.35161278      -3.32901723      -3.37544004
O       -4.42436831      -2.90263141      -3.78931077
N       -2.84291562      -4.57953154      -3.70960096
N       -3.52174425      -5.35511720      -4.68511918
C       -4.10596696      -6.56680951      -4.08698849
H       -4.78843685      -6.31605251      -3.26463191
C       -3.05322832      -7.55268112      -3.64732389
C       -3.63516118      -8.87623610      -4.02590021
O       -3.20206848      -9.90952027      -3.53284341
N       -4.62214833      -8.69215805      -4.97231920
C       -5.27145155      -9.75334924      -5.69418846
C       -4.91061754     -11.10204396      -5.51301884
C       -5.53648628     -12.14214953      -6.21680345
C       -6.54133694     -11.85467329      -7.12824796
Br      -7.38454712     -13.24985349      -8.08022772
C       -6.92222186     -10.53752412      -7.33791811
C       -6.29378875      -9.50310296      -6.62717349
C       -4.90276941      -7.34405027      -5.11958479
O       -5.68054115      -6.79099099      -5.88873079
H       -0.22477608      -2.72097137       0.04349715
H       -1.65384580      -4.15093542      -1.35583931
H       -3.16522711      -0.64775169      -3.38971673
H       -1.73445147       0.78277779      -1.96700722
H       -1.84776723      -4.74871883      -3.58251683
H       -4.29984214      -4.77984514      -5.05198705
H       -2.87530828      -7.49513117      -2.56952075
H       -2.10151697      -7.43502870      -4.17809453
H       -4.12854529     -11.40548479      -4.82402410
H       -5.22309752     -13.16821211      -6.03973256
H       -7.70607350     -10.29282823      -8.05088910
H       -6.64661423      -8.49980304      -6.84531595
C       -0.88159817       0.88159817       0.88159817
C       -1.28549172       2.13421570       0.41926073
C       -2.09097755       2.94507169       1.22420334
C       -2.48655246       2.50047949       2.49418815
C       -2.09101260       1.23380286       2.94166181
C       -1.28234911       0.42620335       2.13711770
C       -3.34008412       3.33720867       3.37877726
O       -4.13298001       2.82300834       4.16032214
N       -3.14470897       4.71040864       3.27693050
N       -3.78655955       5.56330016       4.21212093
C       -4.80368479       6.40076160       3.55531857
H       -5.54899591       5.78679922       3.03332615
C       -4.19277994       7.42630704       2.63414635
C       -5.02778286       8.64411474       2.86539990
O       -5.02098564       9.56473977       2.05870676
N       -5.69348129       8.52507548       4.06806881
C       -6.44316380       9.57982275       4.69600270
C       -6.52526665      10.86752115       4.13289254
C       -7.25101819      11.90253730       4.74188377
C       -7.91184392      11.67312572       5.93928855
Br      -8.88707656      13.06291857       6.76463320
C       -7.85120204      10.41860384       6.52785821
C       -7.12616300       9.38749449       5.91040772
C       -5.54391113       7.24574014       4.57675319
O       -5.94844559       6.77715596       5.63466139
H       -0.98644453       2.48234915      -0.56654338
H       -2.42220523       3.90387424       0.83454106
H       -2.40704228       0.87542280       3.92023045
H       -0.97458925      -0.55284925       2.49694090
H       -2.28975362       5.04823291       2.84101636
H       -4.27225359       4.96049783       4.89892292
H       -4.24366189       7.10725747       1.58904083
H       -3.15511491       7.67203792       2.88748737
H       -6.02899839      11.12631010       3.20274569
H       -7.28564399      12.87955289       4.26584531
H       -8.36049902      10.22109620       7.46819561
H       -7.12592018       8.43479120       6.43102184
C        0.88159817      -0.88159817       0.88159817
C        1.14456048      -0.49773042       2.19667724
C        1.95280462      -1.30113723       3.00631073
C        2.50039167      -2.48648256       2.49434587
C        2.21543248      -2.87238555       1.17865925
C        1.41044014      -2.06579735       0.36943266
C        3.36699465      -3.36379363       3.32528177
O        3.38239067      -4.57824594       3.15567388
N        4.16372288      -2.70954946       4.25877578
N        5.14659280      -3.45486229       4.96052554
C        4.82061281      -3.54589315       6.39325900
H        3.82930585      -3.99083961       6.54897582
C        4.94325868      -2.21628413       7.09369051
C        5.55720849      -2.57061877       8.40947023
O        5.50482267      -1.78930910       9.35030039
N        6.15809469      -3.80937476       8.31915613
C        6.99728231      -4.38747272       9.33423422
C        7.31182026      -3.69494405      10.51891603
C        8.13323557      -4.25067024      11.51153345
C        8.66688263      -5.51888737      11.33848819
Br       9.77524767      -6.27010467      12.66927599
C        8.38365497      -6.23139150      10.18261761
C        7.55805183      -5.66993452       9.19607886
C        5.83034927      -4.41726609       7.11878910
O        6.20411403      -5.49230668       6.66384222
H        0.71866143       0.41744330       2.60103217
H        2.12041260      -1.00257745       4.03763048
H        2.62438990      -3.79921256       0.77909308
H        1.20117076      -2.37078163      -0.65327149
H        4.32037225      -1.71037967       4.14825097
H        5.14046585      -4.41550736       4.57570113
H        3.96630078      -1.74347389       7.23018552
H        5.61508577      -1.51778985       6.58176459
H        6.93910681      -2.69600259      10.72294478
H        8.34488366      -3.67606680      12.41009173
H        8.79569146      -7.22588298      10.02821639
H        7.38239560      -6.28821781       8.32111980
