154
Properties=species:S:1:pos:R:3 pbc="F F F"
C        1.79135528       1.79135528      -1.79135528
C        1.54730684       3.15978146      -1.86684753
C        2.35675470       3.96602606      -2.67367021
C        3.41777114       3.41217929      -3.40578923
C        3.64772412       2.03213952      -3.31535314
C        2.83670736       1.22219339      -2.51378289
C        4.28241727       4.25873860      -4.22751087
N        4.72604257       5.48050577      -3.80202193
H        4.52776451       5.93350803      -2.91806627
N        5.52133226       6.11593732      -4.66590085
C        5.64142600       5.27099367      -5.70068596
C        6.49352476       5.62857419      -6.84022011
C        6.56763045       6.96499269      -7.26634343
C        7.38954844       7.33210276      -8.33604746
C        8.14663638       6.36189947      -8.98646306
C        8.09477674       5.03261895      -8.57405032
C        7.27429141       4.66872941      -7.49968493
C        4.84863045       4.09309220      -5.48666482
C        4.64843055       2.95214457      -6.42022095
H        0.73094435       3.60852858      -1.30722807
H        2.13502018       5.02912501      -2.73218118
H        4.47185890       1.57314370      -3.85666368
H        3.03411294       0.15445973      -2.45845644
H        5.98650717       7.73024663      -6.75527461
H        7.43350169       8.37338702      -8.64356062
H        8.69347125       4.27374999      -9.07049678
H        7.27416145       3.63290087      -7.17244566
H        3.67278929       2.47910168      -6.26973096
H        5.42379417       2.19506365      -6.26480531
H        4.68495740       3.27946117      -7.46380058
C        8.99789170       6.73599612     -10.08601573
C        9.71081804       7.04930205     -11.00689109
Br      10.86355963       7.55589126     -12.49586867
C       -1.79135528      -1.79135528      -1.79135528
C       -2.71650140      -1.20614646      -2.65128796
C       -3.52213535      -2.01512435      -3.45919126
C       -3.40556965      -3.41268418      -3.41748583
C       -2.46712354      -3.98249964      -2.54559360
C       -1.66380166      -3.17658109      -1.73230089
C       -4.22762656      -4.25847259      -4.28256759
N       -4.46878578      -3.94739538      -5.59238912
H       -4.13232529      -3.14152532      -6.10548819
N       -5.22328637      -4.83432384      -6.24556022
C       -5.47222559      -5.79629955      -5.34458049
C       -6.25452736      -6.97527534      -5.73251636
C       -7.32024920      -6.84104552      -6.63767185
C       -8.06556187      -7.95403850      -7.03809828
C       -7.74673516      -9.21244355      -6.53582020
C       -6.68815277      -9.36892055      -5.64437268
C       -5.94073791      -8.25326372      -5.24870412
C       -4.89100015      -5.46272210      -4.07466523
C       -4.99777972      -6.22280695      -2.80020939
H       -2.82198593      -0.12559975      -2.69911532
H       -4.25122961      -1.53633074      -4.10876601
H       -2.33947940      -5.06165167      -2.50053521
H       -0.94234827      -3.64049337      -1.06418747
H       -7.56796242      -5.86160883      -7.04245716
H       -8.88206257      -7.82499222      -7.74339454
H       -6.42744040     -10.35100992      -5.25926770
H       -5.09832432      -8.40199116      -4.57919250
H       -4.93016898      -5.55919729      -1.93225565
H       -4.19214250      -6.96080031      -2.73072032
H       -5.95648827      -6.74527020      -2.72646067
C       -8.50888032     -10.36235156      -6.94867168
C       -9.14717688     -11.32539952      -7.29443479
Br     -10.17924844     -12.88256661      -7.85350450
C       -1.79135528       1.79135528       1.79135528
C       -2.76386768       1.20997191       2.60009624
C       -3.56946889       2.01887157       3.40811051
C       -3.40574057       3.41228508       3.41771402
C       -2.42004239       3.97823343       2.59694096
C       -1.61646733       3.17264507       1.78357123
C       -4.22847880       4.25663466       4.28355328
N       -4.52403857       3.91109293       5.57343877
H       -4.23182293       3.07785837       6.06965751
N       -5.27075268       4.80119997       6.23121777
C       -5.45725483       5.80012821       5.35572259
C       -6.21314959       6.99160721       5.75756226
C       -7.31281177       6.86398670       6.62216810
C       -8.03434863       7.98789099       7.03545903
C       -7.65752013       9.25055881       6.58691998
C       -6.56472442       9.40019401       5.73652758
C       -5.84133664       8.27340131       5.32796779
C       -4.84452445       5.48888184       4.09498119
C       -4.88297637       6.29357916       2.84424053
H       -2.90632852       0.13264084       2.60773164
H       -4.33551488       1.54403565       4.01677583
H       -2.25558642       5.05332834       2.59275153
H       -0.85791293       3.63348418       1.15563200
H       -7.60613943       5.88076269       6.98512628
H       -8.87811388       7.86354987       7.70878558
H       -6.25899302      10.38498048       5.39374452
H       -4.97225595       8.41534742       4.69190462
H       -4.80776498       5.65690681       1.95695013
H       -4.05165341       7.00568549       2.82632423
H       -5.82096169       6.85042104       2.75683641
C       -8.39508064      10.41150039       7.01332252
C       -9.01278757      11.38378897       7.37043465
Br     -10.01156743      12.95589737       7.94785475
C        1.79135528      -1.79135528       1.79135528
C        1.67940922      -3.17695034       1.71757627
C        2.48877530      -3.98296197       2.52471370
C        3.41829992      -3.41103335       3.40640640
C        3.51647549      -2.01371721       3.46502408
C        2.70470833      -1.20470509       2.66327021
C        4.28503478      -4.25346956       4.23016241
N        4.88528501      -5.38128158       3.74200368
H        4.81430846      -5.75981699       2.80521335
N        5.65837803      -6.02502889       4.61976350
C        5.59903742      -5.28030442       5.73376379
C        6.37564105      -5.67112846       6.91554955
C        6.54391658      -7.03116518       7.22388481
C        7.29790547      -7.42719396       8.33259922
C        7.89209984      -6.46214040       9.14075867
C        7.74533556      -5.10852715       8.84758330
C        6.99351105      -4.71509367       7.73410103
C        4.71523650      -4.16375310       5.54939787
C        4.31814690      -3.14468928       6.55795988
H        0.96614306      -3.63977111       1.04078682
H        2.36997467      -5.06230221       2.46404948
H        4.23808056      -1.53820687       4.12537885
H        2.79865059      -0.12329880       2.72507972
H        6.09095285      -7.79109684       6.58997871
H        7.41758238      -8.48568356       8.54718340
H        8.21767476      -4.35186635       9.46817691
H        6.91959180      -3.65606165       7.50385453
H        3.31783056      -2.74948836       6.35430301
H        5.02487955      -2.30863774       6.55014583
H        4.29232745      -3.56996016       7.56593153
C        8.67314658      -6.86541139      10.28134559
C        9.32727322      -7.20315084      11.23658712
Br      10.38494068      -7.74924697      12.78113190
C       -0.00445707       0.01189536      -1.78238275
H       -0.66409135       0.67374010      -2.43557963
H        0.65740317      -0.63156657      -2.45157240
C       -0.90989263      -0.90692880      -0.91072765
C        0.90977584       0.90977584      -0.90977584
C       -0.00465871       1.77757030       0.00794375
H       -0.66225468       2.44313916      -0.64384735
H        0.64322798       2.43503045       0.67728295
C       -1.78241447       0.00034974      -0.00472694
H       -2.45427497      -0.65498947       0.64260836
H       -2.43311707       0.67328779      -0.65473579
C       -0.91132561       0.90220522       0.91563759
C       -0.01476271      -0.02253852       1.78660255
H       -0.67934791      -0.69751639       2.42135241
H        0.63392994       0.61504881       2.47327442
C        0.01484550      -1.77751727      -0.01636693
H        0.67870853      -2.42144646      -0.68295456
H       -0.62264859      -2.45592969       0.64226336
C        1.78714474       0.01002794       0.00389507
H        2.44202412       0.67113390       0.66197326
H        2.45385902      -0.65136977      -0.64189061
C        0.91606151      -0.90478549       0.90901405
