146
Properties=species:S:1:pos:R:3 pbc="F F F"
C        1.79135528       1.79135528      -1.79135528
C        1.54730684       3.15978146      -1.86684753
C        2.35675470       3.96602606      -2.67367021
C        3.41777114       3.41217929      -3.40578923
C        3.64772412       2.03213952      -3.31535314
C        2.83670736       1.22219339      -2.51378289
C        4.28241727       4.25873860      -4.22751087
N        4.72604257       5.48050577      -3.80202193
H        4.52776451       5.93350803      -2.91806627
N        5.52133226       6.11593732      -4.66590085
C        5.64142600       5.27099367      -5.70068596
C        6.49352476       5.62857419      -6.84022011
C        6.56763045       6.96499269      -7.26634343
C        7.38954844       7.33210276      -8.33604746
C        8.14663638       6.36189947      -8.98646306
Br       9.26396865       6.85292754     -10.42970301
C        8.09477674       5.03261895      -8.57405032
C        7.27429141       4.66872941      -7.49968493
C        4.84863045       4.09309220      -5.48666482
C        4.64843055       2.95214457      -6.42022095
H        0.73094435       3.60852858      -1.30722807
H        2.13502018       5.02912501      -2.73218118
H        4.47185890       1.57314370      -3.85666368
H        3.03411294       0.15445973      -2.45845644
H        5.98650717       7.73024663      -6.75527461
H        7.43350169       8.37338702      -8.64356062
H        8.69347125       4.27374999      -9.07049678
H        7.27416145       3.63290087      -7.17244566
H        3.67278929       2.47910168      -6.26973096
H        5.42379417       2.19506365      -6.26480531
H        4.68495740       3.27946117      -7.46380058
C       -1.79135528      -1.79135528      -1.79135528
C       -2.72791571      -1.20675678      -2.63926334
C       -3.53354131      -2.01571652      -3.44719313
C       -3.40560834      -3.41258958      -3.41754174
C       -2.45577514      -3.98178427      -2.55765737
C       -1.65239437      -3.17594466      -1.74434461
C       -4.22782040      -4.25803655      -4.28280980
N       -4.48185397      -3.93855033      -5.58816597
H       -4.15586844      -3.12599724      -6.09747312
N       -5.23450122      -4.82627108      -6.24239813
C       -5.46864841      -5.79728771      -5.34716950
C       -6.24467517      -6.97935451      -5.73828937
C       -7.31859934      -6.84646888      -6.63389835
C       -8.05826015      -7.96216376      -7.03727475
C       -7.72551032      -9.22191905      -6.54756955
Br      -8.71820643     -10.73484437      -7.09354840
C       -6.65865854      -9.37699901      -5.66578846
C       -5.91695461      -8.25858611      -5.26716502
C       -4.87998141      -5.46913617      -4.07926989
C       -4.97059866      -6.24009338      -2.81010401
H       -2.84231216      -0.12674027      -2.67764857
H       -4.27154607      -1.53762723      -4.08715306
H       -2.31925354      -5.06020782      -2.52220492
H       -0.92199993      -3.63936089      -1.08566829
H       -7.57725951      -5.86586835      -7.02890054
H       -8.88134619      -7.83405563      -7.73504751
H       -6.38713581     -10.35999302      -5.29058919
H       -5.06808680      -8.40588504      -4.60553614
H       -4.90132299      -5.58284493      -1.93745400
H       -4.15862765      -6.97217313      -2.75286235
H       -5.92453143      -6.77074179      -2.73294593
C       -1.79135528       1.79135528       1.79135528
C       -2.77024354       1.21075634       2.59293595
C       -3.57584073       2.01964486       3.40096538
C       -3.40576573       3.41222999       3.41774394
C       -2.41370734       3.97738867       2.60412077
C       -1.61009636       3.17184530       1.79074197
C       -4.22860349       4.25638133       4.28368192
N       -4.53168933       3.90629017       5.57059078
H       -4.24559127       3.06944890       6.06429863
N       -5.27733540       4.79680230       6.22903272
C       -5.45521329       5.80058689       5.35730545
C       -6.20747688       6.99368144       5.76116073
C       -7.31168744       6.86716558       6.62011354
C       -8.02995676       7.99247591       7.03526599
C       -7.64527396       9.25543812       6.59428684
Br      -8.60894074      10.78111780       7.15654066
C       -6.54789422       9.40393464       5.74961715
C       -5.82780910       8.27570572       5.33919093
C       -4.83811194       5.49230788       4.09796765
C       -4.86710412       6.30290514       2.85078681
H       -2.91768047       0.13406979       2.59495074
H       -4.34685562       1.54555741       4.00391333
H       -2.24430189       5.05172189       2.60564251
H       -0.84654829       3.63205922       1.16842161
H       -7.61119425       5.88364904       6.97718511
H       -8.87737893       7.86893742       7.70413299
H       -6.23606977      10.38886384       5.41278440
H       -4.95516302       8.41656111       4.70778385
H       -4.79072545       5.66997132       1.96092515
H       -4.03244827       7.01124606       2.83996880
H       -5.80211127       6.86446062       2.76164724
C        1.79135528      -1.79135528       1.79135528
C        1.70982160      -3.17710863       1.68700560
C        2.51916328      -3.98307526       2.49421243
C        3.41839124      -3.41078871       3.40655972
C        3.48622549      -2.01328446       3.49570684
C        2.67431141      -1.20447972       2.69389250
C        4.28549690      -4.25234008       4.23082976
N        4.91894218      -5.35725821       3.73236988
H        4.87499342      -5.71756916       2.78677622
N        5.68720564      -6.00324053       4.61272425
C        5.58964995      -5.28324604       5.74020964
C        6.34995152      -5.68267331       6.92969423
C        6.54019166      -7.04512055       7.21365436
C        7.27948739      -7.44868981       8.32952145
C        7.83683987      -6.48875567       9.16940338
Br       8.84206198      -7.02811719      10.67642002
C        7.66792632      -5.13260601       8.90091368
C        6.93094538      -4.73148748       7.78027289
C        4.68673064      -4.18136165       5.56029519
C        4.24800681      -3.19183947       6.58094978
H        1.02030699      -3.64018914       0.98620487
H        2.42413162      -5.06311701       2.40907773
H        4.18414648      -1.53700732       4.18051248
H        2.74442887      -0.12290385       2.77969639
H        6.11618215      -7.80076786       6.55507840
H        7.41678169      -8.50875703       8.52491061
H        8.11164280      -4.37955558       9.54651963
H        6.83969755      -3.66961826       7.57019217
H        3.24403964      -2.81297427       6.36460801
H        4.93718498      -2.34156110       6.60491706
H        4.21049026      -3.63845058       7.57927830
C       -0.00445707       0.01189536      -1.78238275
H       -0.66409135       0.67374010      -2.43557963
H        0.65740317      -0.63156657      -2.45157240
C       -0.90989263      -0.90692880      -0.91072765
C        0.90977584       0.90977584      -0.90977584
C       -0.00465871       1.77757030       0.00794375
H       -0.66225468       2.44313916      -0.64384735
H        0.64322798       2.43503045       0.67728295
C       -1.78241447       0.00034974      -0.00472694
H       -2.45427497      -0.65498947       0.64260836
H       -2.43311707       0.67328779      -0.65473579
C       -0.91132561       0.90220522       0.91563759
C       -0.01476271      -0.02253852       1.78660255
H       -0.67934791      -0.69751639       2.42135241
H        0.63392994       0.61504881       2.47327442
C        0.01484550      -1.77751727      -0.01636693
H        0.67870853      -2.42144646      -0.68295456
H       -0.62264859      -2.45592969       0.64226336
C        1.78714474       0.01002794       0.00389507
H        2.44202412       0.67113390       0.66197326
H        2.45385902      -0.65136977      -0.64189061
C        0.91606151      -0.90478549       0.90901405
