190
Properties=species:S:1:pos:R:3 pbc="F F F"
C        1.79135136       1.79135136      -1.79135136
C        1.57132690       3.16614571      -1.83605558
C        2.37206006       3.96913755      -2.65278102
C        3.38898362       3.39910315      -3.43162868
C        3.61317719       2.01770037      -3.36352632
C        2.81070153       1.21429026      -2.54666099
C        4.19705658       4.30034601      -4.30762170
O        4.20571122       5.51102582      -4.08894123
C        5.01221488       3.69702280      -5.44936790
O        4.34230253       2.71245399      -6.22112997
C        3.39740873       3.11775738      -7.12142356
C        3.05130680       4.43691297      -7.41941566
C        2.09193481       4.70416696      -8.40304150
C        1.46861392       3.65063741      -9.07904597
C        1.78446925       2.33777872      -8.75909753
O        1.18268930       1.26570768      -9.36194518
C        0.21906610       1.52168096     -10.30853867
C       -0.17762299       2.72265427     -10.76514191
C       -1.22699018       2.84098977     -11.80831070
C       -1.32935997       1.90493760     -12.85414700
C       -2.31497835       2.02502246     -13.84123803
C       -3.20374215       3.09450564     -13.80441549
Br      -4.52406094       3.26868796     -15.14476264
C       -3.11941384       4.03891517     -12.78756207
C       -2.14114099       3.90711021     -11.79536871
C        0.48686870       3.91227345     -10.14654198
O        0.25787058       5.06493515     -10.49470081
C        2.75136157       2.07097204      -7.78911881
H        0.78124090       3.62299955      -1.24544447
H        2.19267367       5.04261268      -2.68475571
H        4.40323638       1.53892498      -3.93563591
H        2.98767700       0.14194781      -2.50912045
H        5.89306420       3.22221238      -5.00081898
H        5.40594262       4.49578988      -6.08944719
H        3.50908669       5.28615254      -6.92012683
H        1.83803362       5.73527868      -8.64291763
H       -0.19011266       0.57632115     -10.64495499
H       -0.63416399       1.07152423     -12.92865684
H       -2.37174943       1.28511894     -14.63537622
H       -3.80068728       4.88517833     -12.75495651
H       -2.10202168       4.66423491     -11.01380441
H        3.00775279       1.04094020      -7.55373401
C       -1.79135136      -1.79135136      -1.79135136
C       -3.17670728      -1.65379160      -1.74302930
C       -3.98168559      -2.47003508      -2.54225797
C       -3.40434155      -3.42988504      -3.38548886
C       -2.00905163      -3.54564783      -3.43970442
C       -1.20383839      -2.72909331      -2.63872109
C       -4.31282319      -4.29447835      -4.19772275
O       -5.47757690      -3.94454225      -4.38355912
C       -3.77105787      -5.59028043      -4.79726728
O       -2.97299325      -6.37659204      -3.92630120
C       -3.59187853      -7.09934478      -2.94536636
C       -4.96847656      -7.20175324      -2.73740563
C       -5.46343090      -8.02026476      -1.71544761
C       -4.58009176      -8.72578992      -0.89241561
C       -3.21031343      -8.59721688      -1.07381520
O       -2.29705279      -9.23542792      -0.27786144
C       -2.77668895     -10.01816356       0.74556678
C       -4.06248232     -10.28374918       1.03605831
C       -4.42824011     -11.16625430       2.17218412
C       -3.64908400     -12.28892832       2.50828769
C       -4.00235304     -13.12401117       3.57508207
C       -5.15131774     -12.85583878       4.31197756
Br      -5.63995834     -13.99080899       5.74137767
C       -5.94438914     -11.75851950       3.99584524
C       -5.57974587     -10.91879170       2.93719964
C       -5.08260001      -9.62477389       0.16168977
O       -6.28831872      -9.81004472       0.28085690
C       -2.71668120      -7.79305619      -2.10171503
H       -3.64087105      -0.92078150      -1.08803237
H       -5.06388627      -2.35877775      -2.49737805
H       -1.52094789      -4.26287135      -4.09397802
H       -0.12232132      -2.83443346      -2.68199049
H       -3.14785618      -5.31249123      -5.65574815
H       -4.59511882      -6.18150261      -5.21455826
H       -5.69128696      -6.67237464      -3.35170445
H       -6.53845911      -8.10926328      -1.56850755
H       -1.93313643     -10.40389573       1.30586867
H       -2.75922468     -12.54339456       1.93660216
H       -3.37965764     -13.98240056       3.81331247
H       -6.85064599     -11.54567654       4.55687497
H       -6.22297829     -10.06864051       2.71560116
H       -1.64300574      -7.70867812      -2.25074316
C       -1.79135136       1.79135136       1.79135136
C       -1.87302958       3.15928069       1.54121791
C       -2.67140811       3.96567903       2.35689149
C       -3.38360084       3.40802054       3.42809406
C       -3.30864475       2.02789031       3.65786881
C       -2.50852793       1.22137048       2.84175437
C       -4.19995563       4.32033652       4.28473214
O       -4.51204278       5.43246794       3.86116754
C       -4.64665269       3.84606408       5.66588879
O       -3.65110466       3.18963429       6.43514754
C       -2.67287593       3.94372563       7.01998811
C       -2.57630829       5.33613969       6.99518745
C       -1.53914776       5.97859599       7.68139953
C       -0.59027139       5.22676040       8.38126550
C       -0.66310940       3.84097249       8.37726361
O        0.25612531       3.05150867       9.01495879
C        1.29323541       3.67579906       9.66672208
C        1.49244091       4.99853732       9.80407678
C        2.65912312       5.52717904      10.55425438
C        3.14838738       4.87615119      11.70196081
C        4.24353811       5.38284888      12.41197136
C        4.85570151       6.55915642      11.99172405
Br       6.32305099       7.25464782      12.95779283
C        4.38708059       7.22775580      10.86638819
C        3.30063188       6.71000637      10.15196343
C        0.48452243       5.88615848       9.14404808
O        0.51409835       7.10895474       9.22265015
C       -1.70515171       3.20059097       7.70570974
H       -1.32017311       3.60912458       0.72038724
H       -2.72842929       5.03450375       2.15710903
H       -3.85997596       1.55297287       4.46484844
H       -2.45043296       0.15284440       3.03546790
H       -5.46776429       3.13551397       5.51281730
H       -5.08509813       4.68226882       6.22381274
H       -3.29020118       5.96012606       6.46503882
H       -1.47838017       7.06552867       7.67232110
H        1.95251437       2.91531142      10.06836643
H        2.67700422       3.96904979      12.07397151
H        4.60131396       4.85682290      13.29323679
H        4.84976026       8.15387144      10.53533638
H        2.95826362       7.25844890       9.27583236
H       -1.76774437       2.11523323       7.71944941
C        1.79135136      -1.79135136       1.79135136
C        2.91988514      -1.25046921       2.40317384
C        3.73151842      -2.06246148       3.19999874
C        3.42112244      -3.41767299       3.38092001
C        2.27280504      -3.94555803       2.77604081
C        1.46134503      -3.13259399       1.97771376
C        4.33817439      -4.24634392       4.22050598
O        5.11752021      -3.69300511       4.99515295
C        4.27742762      -5.76843562       4.11274233
O        4.20142017      -6.28230552       2.79216080
C        5.33140980      -6.28161951       2.02356036
C        6.60508107      -5.87625519       2.42629917
C        7.68421519      -5.97469761       1.54023047
C        7.48618731      -6.46602648       0.24608350
C        6.21445058      -6.83546042      -0.16856549
O        5.95338726      -7.29035819      -1.43340329
C        7.00412719      -7.36225191      -2.31709336
C        8.29693887      -7.08522082      -2.07198649
C        9.32796583      -7.22501708      -3.13067262
C        9.26127809      -8.25535912      -4.08691258
C       10.24057347      -8.38922284      -5.07851417
C       11.31098280      -7.50166574      -5.11746958
Br      12.64321456      -7.69019209      -6.44401699
C       11.40649888      -6.47995425      -4.17938973
C       10.41786820      -6.34185222      -3.19838249
C        8.61667478      -6.61632468      -0.68731533
O        9.75620971      -6.37022344      -0.30892662
C        5.14105872      -6.75143721       0.71895650
H        3.17987319      -0.20388295       2.26592879
H        4.61348988      -1.63356123       3.67299095
H        1.98573335      -4.98539170       2.90667221
H        0.57780431      -3.55556291       1.50537804
H        3.37621315      -6.09371480       4.64616761
H        5.11676155      -6.21501869       4.65939944
H        6.80552678      -5.48870894       3.42113033
H        8.67836083      -5.67263259       1.86523652
H        6.62200098      -7.68692116      -3.27775866
H        8.45266630      -8.98286955      -4.06951877
H       10.16126130      -9.19314908      -5.80566465
H       12.24433645      -5.78770295      -4.19259184
H       10.52308401      -5.53158674      -2.47865311
H        4.14949752      -7.05795257       0.39497692
C       -0.00445707       0.01189536      -1.78238275
H       -0.66409135       0.67374010      -2.43557963
H        0.65740317      -0.63156657      -2.45157240
C       -0.90989263      -0.90692880      -0.91072765
C        0.90977584       0.90977584      -0.90977584
C       -0.00465871       1.77757030       0.00794375
H       -0.66225468       2.44313916      -0.64384735
H        0.64322798       2.43503045       0.67728295
C       -1.78241447       0.00034974      -0.00472694
H       -2.45427497      -0.65498947       0.64260836
H       -2.43311707       0.67328779      -0.65473579
C       -0.91132561       0.90220522       0.91563759
C       -0.01476271      -0.02253852       1.78660255
H       -0.67934791      -0.69751639       2.42135241
H        0.63392994       0.61504881       2.47327442
C        0.01484550      -1.77751727      -0.01636693
H        0.67870853      -2.42144646      -0.68295456
H       -0.62264859      -2.45592969       0.64226336
C        1.78714474       0.01002794       0.00389507
H        2.44202412       0.67113390       0.66197326
H        2.45385902      -0.65136977      -0.64189061
C        0.91606151      -0.90478549       0.90901405
