169
Properties=species:S:1:pos:R:3 pbc="F F F"
C        0.00000000       0.00000000       0.00000000
C        0.88144733       0.88144733      -0.88144733
C        0.66142287       2.25624168      -0.92615155
C        1.46215604       3.05923353      -1.74287700
C        2.47907960       2.48919912      -2.52172465
C        2.70327317       1.10779635      -2.45362229
C        1.90079751       0.30438624      -1.63675697
C        3.28715255       3.39044198      -3.39771768
O        3.29580720       4.60112179      -3.17903721
C        4.10231085       2.78711877      -4.53946387
O        3.43239850       1.80254997      -5.31122595
C        2.48750471       2.20785336      -6.21151953
C        2.14140277       3.52700895      -6.50951164
C        1.18203079       3.79426293      -7.49313748
C        0.55870990       2.74073338      -8.16914194
C        0.87456523       1.42787469      -7.84919351
O        0.27278528       0.35580365      -8.45204115
C       -0.69083793       0.61177694      -9.39863465
C       -1.08752702       1.81275025      -9.85523789
C       -2.13689420       1.93108575     -10.89840668
C       -2.23926400       0.99503357     -11.94424298
C       -3.22488237       1.11511843     -12.93133400
C       -4.11364618       2.18460161     -12.89451146
Br      -5.43396496       2.35878394     -14.23485862
C       -4.02931787       3.12901115     -11.87765805
C       -3.05104501       2.99720619     -10.88546468
C       -0.42303533       3.00236943      -9.23663796
O       -0.65203345       4.15503113      -9.58479678
C        1.84145754       1.16106802      -6.87921479
H       -0.12866312       2.71309553      -0.33554045
H        1.28276965       4.13270866      -1.77485168
H        3.49333235       0.62902095      -3.02573189
H        2.07777298      -0.76795621      -1.59921643
H        4.98316018       2.31230836      -4.09091495
H        4.49603860       3.58588586      -5.17954316
H        2.59918266       4.37624852      -6.01022280
H        0.92812960       4.82537466      -7.73301361
H       -1.10001669      -0.33358287      -9.73505097
H       -1.54406802       0.16162021     -12.01875282
H       -3.28165346       0.37521491     -13.72547220
H       -4.71059131       3.97527431     -11.84505249
H       -3.01192571       3.75433089     -10.10390039
H        2.09784877       0.13103618      -6.64382999
C       -0.88144733      -0.88144733      -0.88144733
C       -2.03653629      -1.45375500      -0.35352482
C       -2.83530286      -2.26972591      -1.15923779
C       -2.47753810      -2.52113321      -2.49133207
C       -1.32378614      -1.92434077      -3.01656489
C       -0.52407230      -1.10853510      -2.20933331
C       -3.35279925      -3.42290500      -3.29960796
O       -4.50486835      -3.64292973      -2.92816811
C       -2.80402591      -4.04133797      -4.58352962
O       -1.48839425      -4.56535049      -4.49242968
C       -1.30141198      -5.75643953      -3.84902608
C       -2.29901020      -6.56998245      -3.30893070
C       -1.96134735      -7.79214562      -2.71593823
C       -0.62354272      -8.19401700      -2.65102550
C        0.37335037      -7.37039331      -3.15459049
O        1.70210850      -7.69431400      -3.08842458
C        2.04216032      -8.88015934      -2.48157464
C        1.20867484      -9.80875590      -1.98038006
C        1.72706817     -11.05564871      -1.36401768
C        2.87072309     -11.70196478      -1.86877087
C        3.35137363     -12.88280185      -1.29014184
C        2.68371345     -13.44314798      -0.20603236
Br       3.32007267     -15.04591671       0.56616645
C        1.54602518     -12.83044767       0.30707116
C        1.07723629     -11.64277552      -0.26608662
C       -0.25202344      -9.49564448      -2.06830414
O       -1.12717465     -10.26744326      -1.69317655
C        0.03609559      -6.15883529      -3.75900066
H       -2.32349101      -1.27638283       0.67990098
H       -3.73533047      -2.71585010      -0.73914943
H       -1.02164549      -2.07739519      -4.04904451
H        0.37437266      -0.65837730      -2.62502855
H       -2.79275659      -3.25050101      -5.34312589
H       -3.50210249      -4.79818980      -4.96117532
H       -3.35047275      -6.29847775      -3.33670348
H       -2.74513919      -8.43016376      -2.31121491
H        3.12282605      -8.95893957      -2.46533789
H        3.40158578     -11.30606049      -2.73183030
H        4.23884664     -13.35821636      -1.69966393
H        1.00922247     -13.26519351       1.14623555
H        0.18347080     -11.18912183       0.15934547
H        0.81917352      -5.52462701      -4.16726145
C       -0.88144733       0.88144733       0.88144733
C       -1.71824289       1.82910054       0.29647268
C       -2.51530970       2.64269345       1.10626342
C       -2.47224230       2.51588285       2.50187822
C       -1.64099630       1.54601096       3.07768455
C       -0.84260735       0.73263733       2.26669603
C       -3.32471365       3.42980995       3.32078862
O       -4.27102079       4.01226152       2.79268388
C       -3.01409146       3.60968719       4.80511485
O       -1.64178562       3.78132296       5.12306584
C       -1.05568886       4.98817341       4.86301534
C       -1.69153135       6.12514066       4.36125135
C       -0.96995362       7.31193835       4.18753922
C        0.39161309       7.35718421       4.50301409
C        1.03422168       6.21832241       4.96753269
O        2.37170102       6.19258713       5.25974396
C        3.09173645       7.34730247       5.06400764
C        2.62414379       8.54234965       4.66225526
C        3.52743345       9.71032735       4.50970432
C        4.60759588       9.92073581       5.38687263
C        5.45200897      11.02847289       5.24510615
C        5.21731213      11.95153722       4.23124181
Br       6.34488720      13.45656496       4.04799983
C        4.15179529      11.77301311       3.35613352
C        3.31860823      10.65685817       3.49337592
C        1.15866552       8.60811415       4.36652342
O        0.58708128       9.64029204       4.03458370
C        0.31222427       5.03910503       5.15485960
H       -1.75693424       1.94659835      -0.78355974
H       -3.16502012       3.38304999       0.64225989
H       -1.59267560       1.40180721       4.15360238
H       -0.19407169      -0.01022146       2.72518296
H       -3.36170473       2.70554040       5.31913836
H       -3.61700570       4.42849581       5.21596611
H       -2.74660355       6.13617948       4.10287096
H       -1.47485244       8.20013462       3.81153080
H        4.13213723       7.14440152       5.28918712
H        4.80403304       9.23343263       6.20690542
H        6.28026169      11.16345573       5.93583961
H        3.95145607      12.49365906       2.56753250
H        2.49297729      10.54729088       2.79199197
H        0.81630651       4.15397029       5.53505117
C        0.88144733      -0.88144733       0.88144733
C        0.69397989      -2.26176644       0.88806977
C        1.49438775      -3.06514658       1.70473223
C        2.47831194      -2.49023217       2.52145926
C        2.67034153      -1.10263930       2.49171098
C        1.86818533      -0.29887917       1.67487622
C        3.28703940      -3.39307568       3.39519713
O        3.33038422      -4.59752034       3.14806164
C        4.05987378      -2.79853110       4.57048862
O        3.34800960      -1.84926666       5.34889815
C        2.39212657      -2.29873964       6.21601139
C        2.07127554      -3.63262122       6.47402660
C        1.09557774      -3.94649927       7.42735418
C        0.43087532      -2.92487318       8.11283672
C        0.72217286      -1.59746928       7.83199128
O        0.08028701      -0.55501793       8.44532514
C       -0.89905364      -0.85682074       9.36180656
C       -1.27711378      -2.07765570       9.77991920
C       -2.34779860      -2.24629247      10.79410436
C       -2.49778538      -1.33869610      11.85910184
C       -3.50338208      -1.50619896      12.81875319
C       -4.36470027      -2.59530184      12.73486533
Br      -5.71188664      -2.83343671      14.03812752
C       -4.23323019      -3.51238587      11.69819566
C       -3.23513894      -3.33322009      10.73354470
C       -0.56931422      -3.23571188       9.14957441
O       -0.77837852      -4.40163326       9.46453972
C        1.70507297      -1.28419190       6.89247548
H       -0.07047220      -2.72275701       0.26768805
H        1.34049685      -4.14304457       1.70678858
H        3.43467279      -0.61928979       3.09412261
H        2.01982667       0.77796506       1.66717157
H        4.93931265      -2.29211989       4.15495095
H        4.45761028      -3.60306497       5.20079236
H        2.56135334      -4.45831782       5.96598282
H        0.86123882      -4.98889542       7.63638362
H       -1.33902670       0.07006411       9.71054222
H       -1.82506798      -0.49104779      11.97032520
H       -3.59703209      -0.78742125      13.62864449
H       -4.89271666      -4.37356628      11.62888586
H       -3.15900997      -4.06993512       9.93538042
H        1.94181997      -0.24292522       6.68796975
