125
Properties=species:S:1:pos:R:3 pbc="F F F"
C        0.00000000       0.00000000       0.00000000
C       -5.89124660       5.78436681      -5.47727062
C       -4.65257854       6.03072760      -5.03059913
C       -3.40003549       5.53618767      -5.67837854
N       -2.72572825       4.68601223      -4.73193673
C       -1.36813316       4.51950102      -4.74124737
O       -0.62542169       5.13878959      -5.50460255
C       -0.80216712       3.54981541      -3.75088918
C       -1.66695320       2.68224685      -2.89934819
O       -2.89380958       2.70087882      -2.98700988
N       -1.05527894       1.84981341      -2.00531941
H       -1.66372933       1.27212172      -1.43568542
C        0.33246048       1.75758321      -1.83583215
C        0.88663907       0.88663907      -0.88663907
C        2.26963571       0.81011200      -0.72475913
C        3.09305687       1.60604719      -1.51680310
C        2.54949492       2.47333160      -2.46540549
C        1.15916228       2.55799820      -2.63424163
C        0.54163175       3.46775466      -3.61758349
O        1.44974202       4.21191464      -4.35348874
H       -6.75703246       6.18408851      -4.95767222
H       -6.07156037       5.18495013      -6.36426525
H       -4.52743343       6.64574069      -4.14171142
H       -2.76034817       6.37903821      -5.95874590
H       -3.60245230       4.94244504      -6.57591598
H       -3.29211533       4.05745203      -4.16106215
H        2.70260074       0.13834843       0.01188075
H        3.20980154       3.08852838      -3.07395666
H        0.95271213       4.76754264      -4.99761700
C        4.52189258       1.53440814      -1.35280199
C        5.71854249       1.47441044      -1.21545105
Br       7.65342418       1.37739923      -0.99336621
C       -4.27645966      -6.84298534       5.74905416
C       -4.73479897      -6.29150098       4.61755176
C       -4.33810278      -6.71775645       3.24132852
N       -3.70070904      -5.59512846       2.60361679
C       -3.71521523      -5.42403694       1.24663693
O       -4.33402990      -6.17075044       0.48680989
C       -2.95097683      -4.25500719       0.70744656
C       -2.08190799      -3.40289095       1.57015710
O       -1.92782046      -3.63464573       2.76838707
N       -1.44758815      -2.34150167       0.98923593
H       -0.86489047      -1.77532675       1.59613940
C       -1.56003859      -2.00071904      -0.36511821
C       -0.88663907      -0.88663907      -0.88663907
C       -1.01303301      -0.55597369      -2.23550014
C       -1.81305584      -1.34487482      -3.05797650
C       -2.48432548      -2.45665201      -2.54725454
C       -2.36416288      -2.79609594      -1.19114329
C       -3.06341056      -3.95630595      -0.60725340
O       -3.83020955      -4.67323042      -1.51170543
H       -4.61601683      -6.48528724       6.71657579
H       -3.55919931      -7.65785792       5.73940222
H       -5.46033803      -5.48325750       4.68357685
H       -5.21965482      -7.03061081       2.67282968
H       -3.62227641      -7.54633331       3.25270099
H       -3.07364530      -5.01610386       3.16335031
H       -0.49489414       0.30841739      -2.64259167
H       -3.10626110      -3.06004923      -3.20597625
H       -4.23634383      -5.43867066      -1.04285728
C       -1.95056918      -1.00742476      -4.45110877
C       -2.06573660      -0.72481033      -5.61785706
Br      -2.25195257      -0.26784670      -7.50439034
C        5.47768974       7.58282099       3.26525958
C        4.15979909       7.53949711       3.02905018
C        3.14350473       6.98445880       3.97357664
N        2.50150824       5.87351259       3.32021636
C        1.21948502       5.49806268       3.61403758
O        0.50354129       6.12513469       4.39637706
C        0.69820104       4.28021376       2.91652475
C        1.56562306       3.41525235       2.06501255
O        2.76455205       3.64510137       1.91352979
N        0.98926293       2.34142807       1.44768874
H        1.59803399       1.77016144       0.87195036
C       -0.36453297       1.99912348       1.56221938
C       -0.88663907       0.88663907       0.88663907
C       -2.23761842       0.56174888       1.00513953
C       -3.06079986       1.35257229       1.80253502
C       -2.54837634       2.45971044       2.48014523
C       -1.19073259       2.79497623       2.36569329
C       -0.60920760       3.96163379       3.05612852
O       -1.51350932       4.67814845       3.82348764
H        6.15773587       8.00888309       2.53358106
H        5.90749383       7.19958056       4.18556828
H        3.78017163       7.94626057       2.09392973
H        2.40801387       7.75259262       4.23285720
H        3.59531849       6.61223649       4.89899072
H        3.07901177       5.24604065       2.75936996
H       -2.64639247      -0.29805503       0.48073097
H       -3.20833076       3.06646845       3.09748737
H       -1.03528670       5.41803058       4.26455450
C       -4.45745382       1.02472359       1.92692531
C       -5.62715151       0.75015030       2.03110218
Br      -7.51845374       0.30618851       2.19954736
C        3.96213800      -7.08676120      -5.67850838
C        4.46207828      -6.51942301      -4.57275311
C        4.08971964      -6.90178459      -3.17697352
N        3.49618971      -5.74824927      -2.55221827
C        3.54891683      -5.54441765      -1.20071925
O        4.16813906      -6.28760162      -0.43777022
C        2.82728413      -4.34373801      -0.67248468
C        1.95795992      -3.49145575      -1.53477383
O        1.76823518      -3.74852660      -2.72268267
N        1.36457860      -2.40058846      -0.96531318
H        0.78086931      -1.83499577      -1.57178727
C        1.51927675      -2.02969139       0.37690770
C        0.88663907      -0.88663907       0.88663907
C        1.05488675      -0.52633726       2.22328282
C        1.85574506      -1.31469573       3.04546638
C        2.48658143      -2.45512895       2.54652163
C        2.32416455      -2.82453769       1.20269988
C        2.97994091      -4.01586650       0.63116250
O        3.75141380      -4.72945286       1.53427875
H        4.28596809      -6.76147936      -6.66271917
H        3.22561820      -7.88290296      -5.63086615
H        5.20529524      -5.73149359      -4.67677015
H        4.97733570      -7.22264961      -2.62254937
H        3.35377011      -7.71217270      -3.15003409
H        2.86963944      -5.16754740      -3.11078799
H        0.56843304       0.36048410       2.62111947
H        3.10989360      -3.05763731       3.20475567
H        4.12680403      -5.51608565       1.07498209
C        2.03638198      -0.94680891       4.42591181
C        2.18766541      -0.63870371       5.58203486
Br       2.43227791      -0.14052365       7.45138806
