74
Properties=species:S:1:pos:R:3 pbc="F F F"
F        1.55113168       3.77343724      -4.80997350
C        2.06470892       3.19277942      -3.71891722
C        1.25066837       2.39293815      -2.92571498
C        1.79153584       1.79153584      -1.79153584
C        3.13123823       1.98722360      -1.45359064
C        3.93016801       2.79445606      -2.26467783
C        3.40174906       3.40168463      -3.40158925
H        0.21050575       2.25080090      -3.20245796
H        3.54830079       1.51589061      -0.56789968
H        4.00967921       4.03245006      -4.04297887
C        5.31367234       3.00173643      -1.92328274
C        6.47235722       3.17533375      -1.63736435
Br       8.34585267       3.45602593      -1.17505849
F       -5.27654673      -2.69231961      -2.16567608
C       -3.95576094      -2.64397829      -2.37666633
C       -3.16553585      -1.83723853      -1.56654712
C       -1.79153584      -1.79153584      -1.79153584
C       -1.21341388      -2.54374788      -2.81489071
C       -2.02624862      -3.34693102      -3.61612227
C       -3.40159184      -3.40167861      -3.40175248
H       -3.63081444      -1.25823701      -0.77471316
H       -0.14120151      -2.50461195      -2.98627761
H       -4.04778233      -4.02131975      -4.01600607
C       -1.43791918      -4.12639398      -4.67437836
C       -0.94519327      -4.77919420      -5.56066784
Br      -0.14849715      -5.83471696      -6.99372298
F       -2.33335603       2.50293833       5.29824807
C       -2.46176668       2.54786416       3.96677472
C       -1.65273116       1.73990046       3.17668989
C       -1.79153584       1.79153584       1.79153584
C       -2.72854280       2.64127105       1.20223863
C       -3.53038723       3.44376199       2.01515269
C       -3.40169783       3.40174033       3.40158477
H       -0.92867113       1.08435362       3.65073986
H       -2.83290575       2.67783337       0.12135195
H       -4.01765404       4.01945849       4.04799561
C       -4.49985040       4.32350955       1.41533157
C       -5.31177580       5.06029814       0.91298138
Br      -6.62459051       6.25162298       0.10072361
F        5.05146574      -3.36145992       1.72161677
C        3.84151134      -2.98363813       2.15125608
C        3.04984478      -2.18117706       1.33829967
C        1.79153584      -1.79153584       1.79153584
C        1.32929042      -2.19927544       3.04348662
C        2.14128793      -3.00495492       3.84305905
C        3.40161188      -3.40164601       3.40176504
H        3.42416488      -1.87257664       0.36702309
H        0.34705486      -1.89264416       3.39239206
H        4.04549508      -4.02815749       4.01145557
C        1.67210127      -3.43024324       5.13634700
C        1.27915745      -3.78642220       6.21947566
Br       0.64380052      -4.36233347       7.97080310
C       -0.00445707       0.01189536      -1.78238275
H       -0.66409135       0.67374010      -2.43557963
H        0.65740317      -0.63156657      -2.45157240
C       -0.90989263      -0.90692880      -0.91072765
C        0.90977584       0.90977584      -0.90977584
C       -0.00465871       1.77757030       0.00794375
H       -0.66225468       2.44313916      -0.64384735
H        0.64322798       2.43503045       0.67728295
C       -1.78241447       0.00034974      -0.00472694
H       -2.45427497      -0.65498947       0.64260836
H       -2.43311707       0.67328779      -0.65473579
C       -0.91132561       0.90220522       0.91563759
C       -0.01476271      -0.02253852       1.78660255
H       -0.67934791      -0.69751639       2.42135241
H        0.63392994       0.61504881       2.47327442
C        0.01484550      -1.77751727      -0.01636693
H        0.67870853      -2.42144646      -0.68295456
H       -0.62264859      -2.45592969       0.64226336
C        1.78714474       0.01002794       0.00389507
H        2.44202412       0.67113390       0.66197326
H        2.45385902      -0.65136977      -0.64189061
C        0.91606151      -0.90478549       0.90901405
