77
Properties=species:S:1:pos:R:3 pbc="F F F"
C        0.00000000       0.00000000       0.00000000
C        0.88137076       0.88137076      -0.88137076
C        0.43251229       2.14292025      -1.26800106
C        1.23849431       2.95649688      -2.07323752
C        2.49644252       2.50613249      -2.49454073
C        2.93012970       1.22947575      -2.10451745
C        2.12704429       0.41942192      -1.29671037
C        3.41232757       3.32583290      -3.35031958
O        4.35309595       2.76019534      -3.90875570
C        3.18316678       4.82256706      -3.47618692
H        2.69256722       5.22920474      -2.58850364
C        4.47726265       5.57901494      -3.72833743
Br       1.98793832       5.08880946      -4.99657978
H       -0.54501490       2.50093683      -0.95319009
H        0.84523754       3.92524124      -2.36608656
H        3.90179965       0.85693017      -2.42645677
H        2.48325879      -0.56463321      -1.00262012
H        4.96511489       5.26179109      -4.65735260
H        5.18682023       5.40960652      -2.91105112
H        4.29593984       6.65668449      -3.80025711
C       -0.88137076      -0.88137076      -0.88137076
C       -1.93939554      -1.58961813      -0.31441992
C       -2.75282377      -2.39644384      -1.11896109
C       -2.50610429      -2.49660286      -2.49440859
C       -1.43097320      -1.78454951      -3.04860019
C       -0.62197195      -0.97547980      -2.24572482
C       -3.33947452      -3.33477041      -3.41423512
O       -2.89315811      -3.59715829      -4.53173060
C       -4.71357467      -3.80282490      -2.96552119
H       -5.15506448      -3.11407929      -2.24113182
C       -5.66611385      -3.98207629      -4.13642488
Br      -4.46656630      -5.52559825      -2.08116301
H       -2.13674055      -1.52556245       0.75319098
H       -3.55597409      -2.94464442      -0.63594682
H       -1.21721155      -1.85347983      -4.11449521
H        0.20334469      -0.42921303      -2.69537735
H       -5.30323062      -4.72951731      -4.85151064
H       -5.78734986      -3.03922334      -4.68090467
H       -6.65529849      -4.30381969      -3.79376325
C       -0.88137076       0.88137076       0.88137076
C       -0.46090094       1.21492217       2.16761048
C       -1.26383697       2.02585379       2.97853794
C       -2.49187939       2.50307251       2.50216384
C       -2.90554247       2.15048873       1.20809170
C       -2.10140319       1.34465210       0.39712129
C       -3.39682518       3.37930472       3.31235014
O       -4.56427592       3.51390791       2.94386316
C       -2.84885225       4.10126205       4.53180645
H       -1.77839627       4.29774895       4.43413037
C       -3.57917580       5.40750995       4.79792927
Br      -3.10304638       2.91163799       6.05864320
H        0.48709868       0.84490287       2.55130783
H       -0.90799825       2.24874149       3.97982559
H       -3.85980207       2.50498057       0.82040395
H       -2.43849177       1.08632198      -0.60356805
H       -4.64774555       5.25074496       4.98576807
H       -3.49276698       6.07845935       3.93625154
H       -3.16120125       5.92190253       5.66977765
C        0.88137076      -0.88137076       0.88137076
C        2.25398413      -0.64744694       0.94200252
C        3.06609632      -1.45059492       1.75153747
C        2.50384637      -2.49201832       2.50125105
C        1.12129133      -2.72076749       2.42206408
C        0.31020600      -1.91568589       1.61728468
C        3.31153528      -3.38465833       3.39228643
O        2.80340522      -4.43671718       3.78192459
C        4.70590918      -2.95740642       3.81860516
H        4.80376575      -1.86924303       3.83726682
C        5.08502659      -3.52127937       5.17830906
Br       5.94657627      -3.64791820       2.47883309
H        2.70326571       0.15346107       0.35930737
H        4.13242219      -1.24618125       1.75796189
H        0.66448448      -3.52937213       2.99132998
H       -0.75895332      -2.10720381       1.57299521
H        5.08215564      -4.61747818       5.18462474
H        4.37632461      -3.18717748       5.94397577
H        6.08550483      -3.19057328       5.47680333
