198
Properties=species:S:1:pos:R:3 pbc="F F F"
C        1.79225373       1.79225373      -1.79225373
C        3.17797022       1.68357029      -1.70970396
C        3.98121768       2.49494372      -2.51235308
C        3.40760443       3.41254194      -3.40724554
C        2.01045595       3.51583054      -3.46861943
C        1.20513140       2.70376939      -2.66599288
C        4.28191210       4.32365459      -4.23732715
O        5.42001063       3.63860346      -4.75722940
C        5.32407529       2.96964160      -5.94343195
C        6.48723627       2.29638720      -6.30625821
C        6.55321303       1.58617153      -7.50821872
C        5.46395799       1.53252583      -8.40602709
C        4.30951393       2.23359717      -8.02232336
O        3.23952974       2.29173930      -8.87573042
C        4.22469544       2.92237131      -6.79822654
C        5.64290150       0.79632604      -9.68397849
N        6.85272082       1.07723355     -10.25308318
C        7.17502954       0.45802846     -11.39282714
N        6.41999771      -0.44052463     -12.02364250
C        5.23840461      -0.70255928     -11.43251597
C        4.75329433      -0.12254299     -10.25775222
C        3.42301364      -0.52997062      -9.75949964
C        3.19151588      -0.89367557      -8.42196742
C        1.91510621      -1.26497477      -7.98117062
C        0.85326325      -1.30754493      -8.88171049
Br      -0.87025646      -1.81057759      -8.28766936
C        1.05274954      -0.97899913     -10.21612084
C        2.32353339      -0.58646579     -10.64325536
H        3.64229725       0.97835683      -1.02560886
H        5.06448399       2.40965934      -2.43776151
H        1.53791588       4.23323851      -4.13617227
H        0.12326447       2.79481140      -2.72480874
H        4.66350918       5.10623606      -3.56973817
H        3.72585471       4.85133947      -5.02025831
H        7.36014272       2.33191402      -5.65814359
H        7.48645148       1.08523468      -7.75990959
H        2.44376622       2.53280226      -8.37357797
H        3.30468528       3.43818376      -6.55253021
H        8.13366068       0.70269876     -11.83580696
H        4.65668693      -1.45574456     -11.95962868
H        4.00543257      -0.88276198      -7.69839365
H        1.76405895      -1.52024112      -6.93468159
H        0.23565772      -1.01624623     -10.92916716
H        2.44706424      -0.30890882     -11.69221203
C       -1.79225373      -1.79225373      -1.79225373
C       -1.31517381      -2.23169600      -3.02437466
C       -2.12553792      -3.03235090      -3.83062566
C       -3.41193029      -3.40603335      -3.40942827
C       -3.87960127      -2.94484830      -2.17045636
C       -3.06914979      -2.14365841      -1.36208547
C       -4.30389854      -4.23116612      -4.30782918
O       -3.58117816      -5.27250628      -4.96215905
C       -3.41863518      -6.47737360      -4.34114007
C       -2.64508234      -7.38290500      -5.06189433
C       -2.40996656      -8.66923755      -4.56839917
C       -2.95195267      -9.10994019      -3.34061805
C       -3.74105555      -8.18161653      -2.64276238
O       -4.36337916      -8.56080579      -1.48281450
C       -3.95382905      -6.87412861      -3.11733563
C       -2.69154109     -10.51100750      -2.92065745
N       -2.83891562     -11.37783003      -3.96629190
C       -2.59925529     -12.67504873      -3.75158113
N       -2.20127784     -13.20581045      -2.59602729
C       -2.05605816     -12.32427179      -1.58803135
C       -2.28922467     -10.94823281      -1.65104607
C       -2.08308063     -10.13497512      -0.43448692
C       -1.34414089      -8.93963808      -0.43602876
C       -1.17712879      -8.18796635       0.73379308
C       -1.72313399      -8.63795567       1.93366085
Br      -1.49651966      -7.62445233       3.51413668
C       -2.43736498      -9.82812447       1.97561820
C       -2.62014827     -10.56013806       0.79996337
H       -0.32188126      -1.95605447      -3.36832722
H       -1.74876496      -3.36689094      -4.79624895
H       -4.88015728      -3.19961075      -1.82755863
H       -3.44522291      -1.79393091      -0.40373079
H       -4.67875410      -3.56546625      -5.09526306
H       -5.19499425      -4.60857664      -3.79388161
H       -2.22906866      -7.09597106      -6.02516061
H       -1.81086251      -9.35032080      -5.17041243
H       -4.60552046      -7.76781208      -0.97681391
H       -4.56510749      -6.19933522      -2.53095655
H       -2.73314911     -13.34913610      -4.58988119
H       -1.70895927     -12.78563972      -0.66597207
H       -0.89435156      -8.57017950      -1.35653318
H       -0.61779668      -7.25588673       0.69518400
H       -2.86051791     -10.19362991       2.90556917
H       -3.20739682     -11.47915195       0.85618131
C       -1.79225373       1.79225373       1.79225373
C       -1.40946943       2.05723382       3.10454122
C       -2.22033059       2.85838676       3.90979712
C       -3.41223177       3.40633622       3.40882392
C       -3.78707059       3.11949511       2.08834022
C       -2.97594795       2.31800794       1.28093776
C       -4.31133620       4.23154499       4.30001265
O       -3.56562929       5.12163573       5.12857847
C       -3.22214030       6.35648530       4.65852325
C       -2.44633521       7.10033972       5.54320675
C       -2.03680297       8.39574298       5.21505733
C       -2.39936178       9.00825396       3.99489517
C       -3.19520189       8.24129793       3.12893464
O       -3.65044763       8.79498053       1.96157130
C       -3.58264299       6.92439691       3.43825339
C       -1.96158874      10.40739695       3.75422034
N       -2.13557845      11.18005355       4.86740556
C       -1.75030253      12.45884567       4.81673693
N       -1.18172768      13.05302019       3.76836772
C       -1.01531403      12.26239973       2.69064754
C       -1.38555136      10.91955076       2.58340144
C       -1.12996367      10.21010918       1.31246981
C       -0.51422078       8.94808536       1.25750159
C       -0.29641167       8.29926191       0.03562849
C       -0.66503578       8.91869926      -1.15630623
Br      -0.36960648       8.04402266      -2.80679382
C       -1.25250544      10.17686661      -1.13950080
C       -1.48844162      10.80736008       0.08452127
H       -0.48989575       1.64509044       3.51127676
H       -1.91843871       3.05599402       4.93747212
H       -4.71595926       3.51165178       1.67971561
H       -3.27938969       2.10459541       0.25889950
H       -4.83069504       3.53688431       4.97190406
H       -5.10178572       4.74987273       3.74579404
H       -2.16532138       6.67898313       6.50589582
H       -1.44258962       8.94759493       5.94141119
H       -3.91248079       8.08495940       1.35270626
H       -4.18996837       6.37856235       2.72686854
H       -1.90738234      13.05933915       5.70544491
H       -0.52874481      12.77081472       1.86101153
H       -0.20317408       8.44557927       2.17231089
H        0.16303286       7.31337633       0.02815594
H       -1.53656491      10.67352458      -2.06151084
H       -1.97488972      11.78499952       0.07047821
C        1.79225373      -1.79225373       1.79225373
C        3.16555198      -1.83867936       1.56701313
C        3.96796188      -2.65002730       2.37052529
C        3.40709601      -3.41252601       3.40776989
C        2.02076280      -3.36157289       3.61257023
C        1.21636481      -2.54932301       2.80920584
C        4.27323184      -4.32747995       4.24218204
O        5.51989257      -3.71985918       4.57609174
C        5.61378474      -2.93452031       5.68884381
C        6.86756385      -2.35618987       5.86612795
C        7.12731762      -1.54558953       6.97469612
C        6.14891884      -1.29204883       7.96154323
C        4.89891526      -1.90082280       7.76569641
O        3.92425502      -1.76419884       8.71854560
C        4.62022010      -2.69032198       6.63475121
C        6.53098275      -0.46039933       9.13182396
N        7.76176313      -0.81180314       9.60947128
C        8.26001079      -0.12425171      10.64162264
N        7.66480919       0.90492377      11.24323017
C        6.45784729       1.23257081      10.74308483
C        5.79849290       0.59764173       9.68765239
C        4.46800454       1.09373748       9.27827560
C        4.13246429       1.35068813       7.93803158
C        2.85791597       1.81081695       7.58420304
C        1.90588343       2.05076402       8.57230940
Br       0.18515890       2.67383586       8.09551227
C        2.21275892       1.83169392       9.90880625
C        3.47827396       1.34983777      10.25188678
H        3.62023051      -1.25479321       0.77123923
H        5.04049027      -2.68695946       2.18445512
H        1.55504786      -3.95824016       4.39403864
H        0.14300916      -2.51974112       2.98013433
H        4.50596525      -5.20598363       3.62753453
H        3.75509723      -4.71654658       5.12580868
H        7.65987048      -2.54518215       5.14514770
H        8.12536559      -1.12417112       7.08205904
H        3.06063988      -1.96675082       8.32275576
H        3.63448055      -3.12728870       6.53363001
H        9.23230606      -0.42531637      11.01454397
H        6.00940903       2.08969330      11.24085534
H        4.86076798       1.18508850       7.14538477
H        2.62236793       1.97968397       6.53581545
H        1.48271185       2.02269118      10.68855798
H        3.68472081       1.16204355      11.30769019
C       -0.00445707       0.01189536      -1.78238275
H       -0.66409135       0.67374010      -2.43557963
H        0.65740317      -0.63156657      -2.45157240
C       -0.90989263      -0.90692880      -0.91072765
C        0.90977584       0.90977584      -0.90977584
C       -0.00465871       1.77757030       0.00794375
H       -0.66225468       2.44313916      -0.64384735
H        0.64322798       2.43503045       0.67728295
C       -1.78241447       0.00034974      -0.00472694
H       -2.45427497      -0.65498947       0.64260836
H       -2.43311707       0.67328779      -0.65473579
C       -0.91132561       0.90220522       0.91563759
C       -0.01476271      -0.02253852       1.78660255
H       -0.67934791      -0.69751639       2.42135241
H        0.63392994       0.61504881       2.47327442
C        0.01484550      -1.77751727      -0.01636693
H        0.67870853      -2.42144646      -0.68295456
H       -0.62264859      -2.45592969       0.64226336
C        1.78714474       0.01002794       0.00389507
H        2.44202412       0.67113390       0.66197326
H        2.45385902      -0.65136977      -0.64189061
C        0.91606151      -0.90478549       0.90901405
