185
Properties=species:S:1:pos:R:3 pbc="F F F"
C        0.00000000       0.00000000       0.00000000
C        0.88234970       0.88234970      -0.88234970
C        2.26806619       0.77366627      -0.79979993
C        3.07131365       1.58503970      -1.60244905
C        2.49770041       2.50263791      -2.49734151
C        1.10055193       2.60592652      -2.55871541
C        0.29522737       1.79386536      -1.75608885
C        3.37200807       3.41375056      -3.32742313
O        4.51010660       2.72869944      -3.84732538
C        4.41417127       2.05973758      -5.03352793
C        5.57733224       1.38648318      -5.39635418
C        5.64330901       0.67626750      -6.59831470
C        4.55405397       0.62262180      -7.49612306
C        3.39960990       1.32369315      -7.11241933
O        2.32962572       1.38183527      -7.96582639
C        3.31479142       2.01246728      -5.88832251
C        4.73299748      -0.11357799      -8.77407447
N        5.94281680       0.16732953      -9.34317916
C        6.26512551      -0.45187556     -10.48292312
N        5.51009369      -1.35042865     -11.11373848
C        4.32850059      -1.61246331     -10.52261195
C        3.84339031      -1.03244702      -9.34784820
C        2.51310961      -1.43987464      -8.84959561
C        2.28161186      -1.80357959      -7.51206340
C        1.00520218      -2.17487879      -7.07126660
C       -0.05664077      -2.21744896      -7.97180647
C        0.14284552      -1.88890316      -9.30621682
C        1.41362937      -1.49636981      -9.73335134
H        2.73239323       0.06845281      -0.11570484
H        4.15457997       1.49975532      -1.52785749
H        0.62801186       3.32333448      -3.22626824
H       -0.78663956       1.88490738      -1.81490471
H        3.75360515       4.19633203      -2.65983415
H        2.81595069       3.94143544      -4.11035429
H        6.45023870       1.42200999      -4.74823957
H        6.57654745       0.17533065      -6.85000556
H        1.53386219       1.62289824      -7.46367394
H        2.39478126       2.52827974      -5.64262619
H        7.22375665      -0.20720527     -10.92590294
H        3.74678291      -2.36564858     -11.04972466
H        3.09552854      -1.79266600      -6.78848963
H        0.85415492      -2.43014515      -6.02477756
H       -0.67424630      -1.92615025     -10.01926313
H        1.53716022      -1.21881285     -10.78230800
C       -1.36900038      -2.60047895      -7.51947884
C       -2.46810156      -2.92126656      -7.14065445
Br      -4.24525519      -3.43995301      -6.52812746
C       -0.88234970      -0.88234970      -0.88234970
C       -1.49378250      -2.00904342      -0.33870648
C       -2.29410064      -2.81626742      -1.14843434
C       -2.49592438      -2.50011524      -2.50164022
C       -1.86314711      -1.36772655      -3.03432019
C       -1.06208284      -0.55844646      -2.22465229
C       -3.32242698      -3.40485678      -3.38589800
O       -4.49179093      -3.87593002      -2.71841047
C       -5.63393923      -3.12854599      -2.74495156
C       -6.68081347      -3.67298394      -2.00637219
C       -7.92408148      -3.03630085      -1.95750888
C       -8.17798451      -1.83642183      -2.65839250
C       -7.10949214      -1.31848238      -3.40774787
O       -7.30201284      -0.20016279      -4.17511176
C       -5.84541959      -1.93609462      -3.43406701
C       -9.54503750      -1.25883418      -2.58962229
N      -10.49980424      -2.22626917      -2.72725207
C      -11.78387194      -1.86397868      -2.64832245
N      -12.22467806      -0.62718499      -2.42154046
C      -11.25913480       0.30135903      -2.28087346
C       -9.88157876       0.08233879      -2.35955152
C       -8.96731804       1.23031376      -2.18582630
C       -7.85526653       1.19263440      -1.32746354
C       -7.00316817       2.29610265      -1.19452447
C       -7.26883984       3.46881889      -1.89769579
C       -8.37385515       3.54862541      -2.73492944
C       -9.20560475       2.43582580      -2.88083194
H       -1.35269698      -2.27045601       0.70660211
H       -2.76380858      -3.69990533      -0.71847886
H       -1.98298388      -1.11013032      -4.08450038
H       -0.57818213       0.31661599      -2.65160639
H       -2.71121454      -4.28779566      -3.61076114
H       -3.55598871      -2.95459425      -4.35715746
H       -6.53894757      -4.60969781      -1.47184288
H       -8.71948944      -3.50324953      -1.37914470
H       -6.44025350       0.19892020      -4.37910108
H       -5.05672920      -1.48530864      -4.02364935
H      -12.52717090      -2.64325519      -2.77202824
H      -11.65116615       1.29500630      -2.07469915
H       -7.63042334       0.29391700      -0.75484583
H       -6.13838509       2.22790931      -0.53831156
H       -8.59633651       4.45914047      -3.28167053
H      -10.05291139       2.51723151      -3.56497549
C       -6.39385875       4.60422576      -1.76036653
C       -5.66106208       5.55512902      -1.64535327
Br      -4.47619185       7.09265915      -1.45938656
C       -0.88234970       0.88234970       0.88234970
C       -2.26806819       0.77377891       0.79968530
C       -3.07131498       1.58515239       1.60233504
C       -2.49770000       2.50263794       2.49734189
C       -1.10054831       2.60581465       2.55883089
C       -0.29522448       1.79375329       1.75620382
C       -3.37200145       3.41375398       3.32742633
O       -4.51019241       2.72875029       3.84718871
C       -4.41439940       2.05969008       5.03334730
C       -5.57763985       1.38649709       5.39603267
C       -5.64376330       0.67619427       6.59793363
C       -4.55458126       0.62239614       7.49582143
C       -3.40005399       1.32340835       7.11226005
O       -2.33013083       1.38140291       7.96575365
C       -3.31508876       2.01226987       5.88822259
C       -4.73367929      -0.11388796       8.77370263
N       -5.94352072       0.16706871       9.34273605
C       -6.26596437      -0.45219908      10.48240778
N       -5.51104988      -1.35085848      11.11321212
C       -4.32943153      -1.61293844      10.52215613
C       -3.84418663      -1.03286925       9.34747410
C       -2.51389898      -1.44036070       8.84929231
C       -2.28232651      -1.80398080       7.51174996
C       -1.00591151      -2.17534411       7.07102259
C        0.05585909      -2.21806483       7.97164065
C       -0.14370437      -1.88960609       9.30606089
C       -1.41449087      -1.49700802       9.73312804
H       -2.73239684       0.06865356       0.11550048
H       -4.15458211       1.49995683       1.52765383
H       -0.62800443       3.32313515       3.22647501
H        0.78664491       1.88470779       1.81510966
H       -3.75348728       4.19641593       2.65986812
H       -2.81596365       3.94133614       4.11044063
H       -6.45049385       1.42214059       4.74785382
H       -6.57705948       0.17530971       6.84951447
H       -1.53431029       1.62244335       7.46368074
H       -2.39502018       2.52803059       5.64263641
H       -7.22461072      -0.20748922      10.92533283
H       -3.74781207      -2.36620877      11.04925568
H       -3.09618684      -1.79294927       6.78811460
H       -0.85480355      -2.43054178       6.02452557
H        0.67332988      -1.92697057      10.01916703
H       -1.53808090      -1.21952204      10.78209652
C        1.36822401      -2.60116079       7.51938431
C        2.46732963      -2.92200367       7.14061963
Br       4.24449046      -3.44077946       6.52818917
C        0.88234970      -0.88234970       0.88234970
C        1.27452978      -2.13883350       0.42816912
C        2.07530414      -2.94481573       1.23868254
C        2.49620199      -2.49936100       2.50211684
C        2.08221887      -1.23567886       2.94729612
C        1.28096523      -0.42756575       2.13665061
C        3.32121055      -3.39588523       3.39608599
O        4.32368991      -4.09856750       2.66387400
C        5.54000309      -3.51619391       2.45123978
C        6.40354424      -4.28283122       1.67379413
C        7.69575396      -3.83214262       1.38999463
C        8.18474630      -2.60287623       1.88517630
C        7.29824198      -1.85805810       2.67942230
O        7.72616990      -0.69266187       3.25845562
C        5.98478281      -2.28985542       2.94094299
C        9.58889151      -2.22956839       1.57503406
N       10.43069414      -3.29466567       1.72796567
C       11.72605971      -3.12297727       1.44713608
N       12.27675039      -1.99401189       1.00264124
C       11.41927785      -0.96605354       0.85331784
C       10.04910285      -0.98413120       1.12555744
C        9.26383464       0.24865915       0.90765510
C        8.04867372       0.26046442       0.20188636
C        7.32476715       1.44589442       0.02271726
C        7.82239122       2.64711818       0.52244369
C        9.03279688       2.67516917       1.20253148
C        9.73734310       1.48489082       1.39815861
H        0.96191079      -2.50186339      -0.54722331
H        2.37273123      -3.92933491       0.88012663
H        2.37414941      -0.87292039       3.93054479
H        0.96814466       0.55009664       2.49512452
H        2.64506562      -4.15386258       3.81084314
H        3.73728976      -2.86862431       4.26182635
H        6.07893711      -5.24865937       1.29289179
H        8.34313866      -4.46909139       0.78965362
H        6.95434758      -0.15824278       3.50784402
H        5.34359820      -1.66837339       3.55371559
H       12.38054505      -3.97586802       1.58604124
H       11.89569170      -0.06707496       0.46809233
H        7.64182397      -0.66124347      -0.21171527
H        6.37668288       1.41818095      -0.50971459
H        9.43520787       3.60570148       1.58936018
H       10.67363312       1.53132613       1.95834838
C        7.07920872       3.86655131       0.33734210
C        6.45679338       4.88782656       0.18231952
Br       5.45040041       6.53914227      -0.06833889
