150
Properties=species:S:1:pos:R:3 pbc="F F F"
C        1.79090186       1.79090186      -1.79090186
C        1.28110557       2.31398951      -2.97742983
C        2.08559121       3.12111247      -3.78985693
C        3.40046153       3.40040362      -3.41199750
C        3.90452270       2.86130217      -2.22497035
C        3.10163302       2.06348928      -1.40774253
O        4.29912823       4.13375851      -4.13375704
C        3.76845753       5.05634968      -5.08093983
C        4.92876175       5.73910362      -5.69810276
N        5.33130850       6.95574034      -5.37721362
N        6.34029565       7.27187338      -6.23276242
N        6.56279921       6.28748888      -7.08383055
N        5.71248677       5.27912988      -6.75148385
C        5.73867435       4.05967935      -7.49135853
C        5.04097484       2.91105306      -7.09970851
C        5.08403554       1.74881614      -7.88120435
C        5.83435719       1.72020365      -9.05279399
C        6.55411237       2.84180769      -9.44723876
C        6.51076919       4.00338136      -8.66895084
H        0.26095164       2.09338645      -3.28437397
H        1.65618498       3.49448698      -4.71336399
H        4.93047320       3.07106875      -1.92916884
H        3.50782054       1.66060850      -0.48512506
H        3.14521994       5.79496284      -4.56164529
H        3.16121535       4.57212899      -5.85109839
H        4.47551951       2.84369029      -6.18067761
H        4.53546105       0.86663261      -7.55710334
H        7.15139499       2.82768101     -10.35591256
H        7.08475994       4.86458514      -9.01236572
C        5.87072050       0.52310740      -9.85231778
C        5.90117477      -0.47946071     -10.52191895
Br       5.95041675      -2.10052854     -11.60460742
C       -1.79090186      -1.79090186      -1.79090186
C       -3.17792116      -1.69437512      -1.70022863
C       -3.99037628      -2.50141146      -2.50477287
C       -3.41042725      -3.40525643      -3.39717897
C       -2.01794912      -3.50109711      -3.47174900
C       -1.20474616      -2.69084544      -2.67727322
O       -4.08742012      -4.27696184      -4.20226182
C       -5.43851529      -3.95126993      -4.51596182
C       -5.93065879      -5.02039390      -5.41491543
N       -6.04396674      -4.89515331      -6.72514242
N       -6.63307355      -6.03471994      -7.17713796
N       -6.89994788      -6.85577454      -6.17839621
N       -6.43270488      -6.26430985      -5.04608577
C       -6.56092428      -6.93516759      -3.79362036
C       -5.94145976      -6.49059742      -2.61967923
C       -6.12469383      -7.17727639      -1.41208580
C       -6.91715127      -8.32036431      -1.36983925
C       -7.52166214      -8.79276327      -2.52873339
C       -7.34101042      -8.10735438      -3.73473660
H       -3.63819076      -0.99992282      -1.00059848
H       -5.06508654      -2.40749555      -2.39145386
H       -1.56121548      -4.20822116      -4.16127414
H       -0.12508951      -2.77329107      -2.75517351
H       -5.46942277      -2.98949489      -5.04291041
H       -6.07501072      -3.88013248      -3.62929954
H       -5.27615165      -5.63910950      -2.58462626
H       -5.63231039      -6.81516632      -0.51172030
H       -8.13532704      -9.69035570      -2.50930584
H       -7.83430655      -8.50535317      -4.62205107
C       -7.10343333      -9.01847920      -0.12423314
C       -7.25944456      -9.60315043       0.91896198
Br      -7.51170153     -10.54851435       2.60572025
C       -1.79090186       1.79090186       1.79090186
C       -3.16526417       1.56714376       1.84011698
C       -3.97788956       2.37347829       2.64519276
C       -3.41108064       3.40404913       3.39773288
C       -2.03262652       3.62607805       3.33209066
C       -1.21808891       2.81756865       2.53720726
O       -4.09540699       4.28624167       4.18499512
C       -5.37769311       3.87643267       4.65162126
C       -5.88922050       4.97920277       5.49754486
N       -5.87693201       4.96881635       6.81851411
N       -6.52977116       6.09094067       7.22421962
N       -6.95793122       6.78807563       6.18811178
N       -6.53625573       6.13489568       5.07194908
C       -6.83458347       6.67107442       3.78405434
C       -6.27937514       6.17277025       2.59959102
C       -6.62989423       6.72413457       1.36002723
C       -7.52732133       7.78561630       1.29441720
C       -8.07161953       8.31139000       2.46014929
C       -7.72391840       7.76091293       3.69827006
H       -3.61652059       0.77274244       1.24944903
H       -5.04469802       2.17707393       2.64226401
H       -1.58694275       4.43178959       3.91197845
H       -0.14834339       2.99968186       2.50552885
H       -5.27223935       2.96957877       5.26000997
H       -6.07863608       3.66741926       3.83838740
H       -5.54221923       5.38225663       2.57541155
H       -6.18493995       6.32247420       0.45178286
H       -8.76659671       9.14693977       2.42145209
H       -8.17428726       8.19685836       4.59056518
C       -7.88521632       8.34447475       0.01645460
C       -8.18495338       8.81251871      -1.05383908
Br      -8.66960284       9.56930621      -2.78441343
C        1.79090186      -1.79090186       1.79090186
C        1.62504317      -1.77327165       3.17421008
C        2.43170249      -2.57808851       3.98676961
C        3.40461600      -3.39745231       3.41079434
C        3.56925340      -3.39878000       2.02276183
C        2.75991711      -2.60412234       1.20882537
O        4.28217813      -4.19310095       4.09136470
C        3.90928412      -4.58789257       5.40857035
C        4.99710482      -5.45882719       5.91003611
N        4.93135854      -6.77747639       5.95542754
N        6.06289814      -7.20395741       6.57807589
N        6.82034435      -6.18214054       6.93163374
N        6.19641645      -5.05720011       6.48948393
C        6.79802603      -3.78246776       6.70921845
C        6.32574579      -2.60160350       6.12438713
C        6.94276791      -1.37360589       6.39768222
C        8.04393901      -1.31683831       7.24657750
C        8.54394436      -2.48064810       7.81856635
C        7.92798987      -3.70712673       7.54798479
H        0.87614681      -1.13051728       3.63204796
H        2.28198951      -2.52236294       5.05968350
H        4.33012860      -4.03103223       1.56954995
H        2.89667433      -2.62480593       0.13207384
H        2.97423580      -5.16027701       5.36731527
H        3.76477854      -3.73796639       6.08169781
H        5.50572576      -2.57382774       5.42033391
H        6.56026518      -0.46807191       5.93085992
H        9.40970275      -2.44936278       8.47592304
H        8.34561266      -4.59800067       8.01809746
C        8.67035562      -0.05052951       7.52526055
C        9.19497953       1.01000412       7.75865760
Br      10.04325202       2.72479729       8.13604090
C       -0.00445707       0.01189536      -1.78238275
H       -0.66409135       0.67374010      -2.43557963
H        0.65740317      -0.63156657      -2.45157240
C       -0.90989263      -0.90692880      -0.91072765
C        0.90977584       0.90977584      -0.90977584
C       -0.00465871       1.77757030       0.00794375
H       -0.66225468       2.44313916      -0.64384735
H        0.64322798       2.43503045       0.67728295
C       -1.78241447       0.00034974      -0.00472694
H       -2.45427497      -0.65498947       0.64260836
H       -2.43311707       0.67328779      -0.65473579
C       -0.91132561       0.90220522       0.91563759
C       -0.01476271      -0.02253852       1.78660255
H       -0.67934791      -0.69751639       2.42135241
H        0.63392994       0.61504881       2.47327442
C        0.01484550      -1.77751727      -0.01636693
H        0.67870853      -2.42144646      -0.68295456
H       -0.62264859      -2.45592969       0.64226336
C        1.78714474       0.01002794       0.00389507
H        2.44202412       0.67113390       0.66197326
H        2.45385902      -0.65136977      -0.64189061
C        0.91606151      -0.90478549       0.90901405
