121
Properties=species:S:1:pos:R:3 pbc="F F F"
C        0.00000000       0.00000000       0.00000000
C        0.88099784       0.88099784      -0.88099784
C        0.37120154       1.40408548      -2.06752581
C        1.17568719       2.21120844      -2.87995290
C        2.49055751       2.49049960      -2.50209347
C        2.99461868       1.95139815      -1.31506633
C        2.19172899       1.15358525      -0.49783850
O        3.38922421       3.22385448      -3.22385302
C        2.85855351       4.14644566      -4.17103580
C        4.01885772       4.82919959      -4.78819873
N        4.42140448       6.04583632      -4.46730959
N        5.43039162       6.36196936      -5.32285840
N        5.65289518       5.37758485      -6.17392652
N        4.80258274       4.36922585      -5.84157983
C        4.82877032       3.14977533      -6.58145451
C        4.13107082       2.00114904      -6.18980449
C        4.17413151       0.83891211      -6.97130032
C        4.92445316       0.81029962      -8.14288997
Br       4.97215391      -0.76003029      -9.19169129
C        5.64420834       1.93190366      -8.53733473
C        5.60086517       3.09347734      -7.75904681
H       -0.64895238       1.18348242      -2.37446994
H        0.74628096       2.58458295      -3.80345997
H        4.02056917       2.16116473      -1.01926481
H        2.59791651       0.75070448       0.42477896
H        2.23531592       4.88505882      -3.65174127
H        2.25131133       3.66222497      -4.94119437
H        3.56561548       1.93378627      -5.27077359
H        3.62555703      -0.04327141      -6.64719932
H        6.24149097       1.91777699      -9.44600854
H        6.17485592       3.95468111      -8.10246170
C       -0.88099784      -0.88099784      -0.88099784
C       -1.98982174      -1.52136152      -0.33162958
C       -2.80000921      -2.33186467      -1.13497466
C       -2.49552146      -2.50041851      -2.48721061
C       -1.37446649      -1.86174755      -3.02486911
C       -0.56967798      -1.04516044      -2.22831433
O       -3.17623637      -3.29572062      -3.36497471
C       -4.52797497      -3.60772985      -3.04033015
C       -5.04471550      -4.44204780      -4.14949274
N       -5.82757841      -3.99283017      -5.11414182
N       -6.17862980      -5.07038349      -5.86620608
N       -5.64438951      -6.17679656      -5.38322049
N       -4.88430726      -5.81400386      -4.31507730
C       -4.15767634      -6.80789896      -3.59442486
C       -3.20817907      -6.50121202      -2.61263325
C       -2.54360135      -7.52148334      -1.91925925
C       -2.81228944      -8.85558860      -2.20976471
Br      -1.91429289     -10.22349263      -1.26602939
C       -3.73359074      -9.18202650      -3.19782950
C       -4.39907792      -8.16456089      -3.88975050
H       -2.22871045      -1.40347212       0.72318260
H       -3.64362080      -2.82582262      -0.66488046
H       -1.12950370      -1.99478503      -4.07670998
H        0.29204073      -0.55036731      -2.66551545
H       -5.11205775      -2.68105422      -2.97900404
H       -4.62431357      -4.14048207      -2.08993502
H       -2.91411669      -5.49060612      -2.36545253
H       -1.80789151      -7.26052664      -1.16106678
H       -3.94444777     -10.22109029      -3.43973844
H       -5.11795954      -8.45908585      -4.65495333
C       -0.88099784       0.88099784       0.88099784
C       -2.26728796       0.75478070       0.82074418
C       -3.07979093       1.56165704       1.62540057
C       -2.50068341       2.49508286       2.48738431
C       -1.10924620       2.62039370       2.53144325
C       -0.29572746       1.81052484       1.73690044
O       -3.17909525       3.36933466       3.28850180
C       -4.51665125       3.02306086       3.63632286
C       -5.01245200       4.10028914       4.52351491
N       -5.09681727       3.99969123       5.83804190
N       -5.69996707       5.13621930       6.27903300
N       -6.00363692       5.93109239       5.26967725
N       -5.54721048       5.32604086       4.14013708
C       -5.71430091       5.96836223       2.87733702
C       -5.10956449       5.51234972       1.70011013
C       -5.33106968       6.17030048       0.48297379
C       -6.14748982       7.29612720       0.43402574
Br      -6.44336271       8.17310788      -1.21265568
C       -6.73815177       7.77994895       1.59534601
C       -6.51928586       7.12318324       2.81092022
H       -2.72718560       0.03701919       0.14479520
H       -4.15440934       1.44386083       1.53605371
H       -0.65334597       3.35054347       3.19710927
H        0.78335880       1.91622860       1.79097223
H       -4.51723505       2.07186698       4.18301398
H       -5.16924216       2.92098084       2.76450767
H       -4.42777415       4.67386273       1.66853846
H       -4.84955567       5.79977052      -0.41984125
H       -7.37036034       8.66444197       1.57047418
H       -7.00271038       7.52930116       3.69998718
C        0.88099784      -0.88099784       0.88099784
C        0.65955656      -0.92742392       2.25583235
C        1.46590427      -1.73248874       3.06845553
C        2.49416842      -2.48781660       2.50116555
C        2.71390202      -2.42496758       1.12221355
C        1.90535832      -1.63009466       0.30769976
O        3.37618077      -3.27542434       3.18532660
C        2.96779998      -3.73909566       4.46913933
C        4.06998486      -4.58605157       4.98021962
N        4.05727234      -5.90702008       4.97025797
N        5.17982640      -6.31354653       5.62184645
N        5.87951521      -5.27791325       6.04697810
N        5.22754762      -4.16134805       5.62449275
C        5.76649307      -2.87387385       5.91963324
C        5.26928657      -1.68951190       5.36322587
C        5.82342445      -0.45030398       5.71061552
C        6.88658586      -0.38498360       6.60607328
Br       7.62342968       1.29095810       7.07134333
C        7.41127542      -1.55068142       7.15148989
C        6.85803223      -2.78844297       6.80691412
H       -0.13302315      -0.33458209       2.70744105
H        1.27137011      -1.72735550       4.13559827
H        3.51782047      -3.00703933       0.67613892
H        2.08565663      -1.60060098      -0.76241558
H        2.05970310      -4.34608157       4.36633134
H        2.76143109      -2.92427607       5.16902350
H        4.47752920      -1.66523700       4.62740914
H        5.42257223       0.45786332       5.26477601
H        8.24810478      -1.51223214       7.84493957
H        7.29320669      -3.68071153       7.25808051
