162
Properties=species:S:1:pos:R:3 pbc="F F F"
C        1.82212692       1.82212692      -1.82212692
C        1.54551271       3.28775635      -1.54221577
O        2.37363219       4.06758713      -2.40905634
C        2.28541648       5.42775126      -2.29683729
C        1.46304634       6.12450191      -1.40861060
C        1.47900752       7.52290417      -1.38658803
C        2.31514591       8.22542480      -2.25920649
C        3.12371357       7.53665432      -3.15387933
O        3.94866093       8.17243754      -4.04395637
C        3.95125832       9.54718454      -4.04394413
C        3.25457504      10.36196108      -3.23174887
C        3.36379224      11.83528512      -3.35009828
C        4.60217708      12.45729260      -3.58869607
C        4.70366202      13.84959250      -3.68816862
C        3.56694647      14.63807774      -3.53768120
C        2.33164236      14.04748552      -3.29374507
C        2.23280742      12.65478422      -3.20492669
C        2.35788344       9.69797043      -2.23940112
O        1.68130932      10.31991464      -1.42690623
C        3.11342245       6.14108931      -3.17045732
H        1.60991484       1.56289526      -2.86327332
H        2.86310877       1.56175169      -1.61006375
H        1.78069282       3.51307926      -0.49445455
H        0.48919879       3.51088197      -1.73766088
H        0.79965781       5.61499896      -0.71640809
H        0.84067711       8.06021029      -0.68805241
H        4.61975241       9.89226491      -4.82368642
H        5.51196944      11.86882646      -3.68611370
H        5.67297316      14.30478222      -3.87333824
H        1.43968227      14.65481474      -3.16345645
H        1.25396886      12.21980001      -3.00873208
H        3.75281576       5.60405525      -3.86653689
C        3.67151192      16.07141676      -3.62826433
C        3.75908548      17.27183820      -3.70412770
Br       3.90068453      19.21281813      -3.82679236
C       -1.82212692      -1.82212692      -1.82212692
C       -1.24649655      -1.90518889      -3.22379938
O       -2.12013039      -2.71677999      -4.01336529
C       -1.76284325      -2.93118442      -5.31597737
C       -0.61905650      -2.43312256      -5.94397979
C       -0.36367024      -2.74048631      -7.28434318
C       -1.25765251      -3.54288857      -7.99923611
C       -2.40345122      -4.02819956      -7.38259644
O       -3.32328351      -4.80309662      -8.03867472
C       -3.09037033      -5.08896862      -9.36304805
C       -2.02571933      -4.72344618     -10.09911948
C       -1.91210703      -5.11228639     -11.52478222
C       -2.29167956      -6.39338900     -11.96309717
C       -2.17204039      -6.76128221     -13.30810054
C       -1.65882796      -5.85392974     -14.22994770
C       -1.26941156      -4.58317784     -13.82028355
C       -1.39993234      -4.21594654     -12.47663944
C       -0.99733234      -3.89096233      -9.40696032
O        0.03071885      -3.50512242      -9.95372663
C       -2.65427761      -3.72780927      -6.04288220
H       -2.82573607      -1.38739845      -1.82294890
H       -1.87654860      -2.80764060      -1.35073500
H       -0.24700489      -2.35618505      -3.18503668
H       -1.17922519      -0.90004381      -3.65847265
H        0.09822980      -1.80634609      -5.42294857
H        0.53230589      -2.35470458      -7.76654111
H       -3.92098890      -5.67190940      -9.74280545
H       -2.67301167      -7.13229997     -11.26159796
H       -2.47298921      -7.75777106     -13.62033335
H       -0.85687495      -3.87092121     -14.53015729
H       -1.08296417      -3.21631320     -12.18322358
H       -3.54805977      -4.11508841      -5.56025972
C       -1.52428860      -6.23476013     -15.61214428
C       -1.41161189      -6.55370558     -16.76973391
Br      -1.22942317      -7.06941340     -18.64145844
C       -1.82212692       1.82212692       1.82212692
C       -3.21973878       1.23853804       1.91720801
O       -4.00968339       2.11230293       2.72828935
C       -5.30877327       1.74844892       2.95278284
C       -5.93280117       0.59786884       2.46548883
C       -7.26969886       0.33624961       2.78255126
C       -7.98515282       1.23075829       3.58386610
C       -7.37257669       2.38320379       4.05846674
O       -8.02954213       3.30375005       4.83176266
C       -9.35071733       3.06456897       5.12710069
C      -10.08248988       1.99327476       4.77252035
C      -11.50505403       1.87340412       5.17071748
C      -11.93790900       2.25811209       6.45214464
C      -13.27990687       2.13257552       6.82894075
C      -14.20408721       1.60827468       5.93034351
C      -13.79975937       1.21361280       4.65950079
C      -12.45918299       1.35002637       4.28330896
C       -9.38913233       0.96404548       3.94207718
O       -9.93195266      -0.06962798       3.56580552
C       -6.03625814       2.64030186       3.74840907
H       -1.83169350       2.82304624       1.38134369
H       -1.34511761       1.88540297       2.80440363
H       -3.17215948       0.24206485       2.37400230
H       -3.66007137       1.16251551       0.91515476
H       -5.41121477      -0.12005430       1.83990438
H       -7.74875728      -0.56496241       2.40514493
H       -9.73199079       3.89640847       5.70730449
H      -11.23428496       2.64817755       7.18444709
H      -13.58792850       2.43769244       7.82547269
H      -14.51140621       0.79245563       3.95409161
H      -12.16989908       1.02875763       3.28384425
H       -5.55675276       3.53933168       4.12732346
C      -15.58310784       1.46769210       6.32039307
C      -16.73803761       1.34995420       6.64705957
Br     -18.60546138       1.15958197       7.17525167
C        1.82212692      -1.82212692       1.82212692
C        1.90960736      -1.24355767       3.22231980
O        2.76480164      -2.08818944       3.99728459
C        2.95881189      -1.74446721       5.30672593
C        2.39331240      -0.64553568       5.95731076
C        2.66414884      -0.41444507       7.30990582
C        3.50721846      -1.28137801       8.01118073
C        4.08298875      -2.36700893       7.36424953
O        4.93072230      -3.23839501       7.99593753
C        5.22005943      -3.00317705       9.31915051
C        4.73085769      -2.02078967      10.09663764
C        5.13641619      -1.89605742      11.51670203
C        5.28295894      -3.03026705      12.33493974
C        5.65461281      -2.90812652      13.67868380
C        5.87259539      -1.64641276      14.22369726
C        5.72700620      -0.50860965      13.43725710
C        5.36506001      -0.63561511      12.09184320
C        3.79118756      -1.06369618       9.44037126
O        3.25757111      -0.13393654      10.03662254
C        3.80653167      -2.60191647       6.01652093
H        2.80587681      -1.88225444       1.34795217
H        1.38320925      -2.82398979       1.82772517
H        0.90837376      -1.20999693       3.66985594
H        2.32733545      -0.22988152       3.18052467
H        1.73464077       0.05053598       5.44696007
H        2.21571950       0.43986185       7.81308215
H        5.92741104      -3.75104546       9.65724726
H        5.09531983      -4.02788137      11.94370840
H        5.76111311      -3.80103915      14.28894136
H        5.88391256       0.48203894      13.85607983
H        5.25385919       0.27228190      11.50092366
H        4.25247157      -3.45668122       5.51425510
C        6.24381504      -1.51826585      15.60911212
C        6.55471150      -1.41094282      16.76939707
Br       7.05740477      -1.23741055      18.64547969
C       -0.00445707       0.01189536      -1.78238275
H       -0.66409135       0.67374010      -2.43557963
H        0.65740317      -0.63156657      -2.45157240
C       -0.90989263      -0.90692880      -0.91072765
C        0.90977584       0.90977584      -0.90977584
C       -0.00465871       1.77757030       0.00794375
H       -0.66225468       2.44313916      -0.64384735
H        0.64322798       2.43503045       0.67728295
C       -1.78241447       0.00034974      -0.00472694
H       -2.45427497      -0.65498947       0.64260836
H       -2.43311707       0.67328779      -0.65473579
C       -0.91132561       0.90220522       0.91563759
C       -0.01476271      -0.02253852       1.78660255
H       -0.67934791      -0.69751639       2.42135241
H        0.63392994       0.61504881       2.47327442
C        0.01484550      -1.77751727      -0.01636693
H        0.67870853      -2.42144646      -0.68295456
H       -0.62264859      -2.45592969       0.64226336
C        1.78714474       0.01002794       0.00389507
H        2.44202412       0.67113390       0.66197326
H        2.45385902      -0.65136977      -0.64189061
C        0.91606151      -0.90478549       0.90901405
