133
Properties=species:S:1:pos:R:3 pbc="F F F"
C        0.00000000       0.00000000       0.00000000
C        0.91222290       0.91222290      -0.91222290
C        0.63560869       2.37785233      -0.63231174
O        1.46372817       3.15768310      -1.49915232
C        1.37551246       4.51784724      -1.38693327
C        0.55314232       5.21459788      -0.49870657
C        0.56910350       6.61300015      -0.47668401
C        1.40524189       7.31552077      -1.34930247
C        2.21380955       6.62675029      -2.24397531
O        3.03875691       7.26253352      -3.13405235
C        3.04135430       8.63728051      -3.13404011
C        2.34467101       9.45205706      -2.32184485
C        2.45388821      10.92538110      -2.44019426
C        3.69227305      11.54738857      -2.67879204
C        3.79375799      12.93968847      -2.77826459
C        2.65704244      13.72817371      -2.62777717
Br       2.79427358      15.60928023      -2.74665799
C        1.42173834      13.13758150      -2.38384105
C        1.32290340      11.74488019      -2.29502266
C        1.44797942       8.78806640      -1.32949710
O        0.77140530       9.41001062      -0.51700221
C        2.20351842       5.23118528      -2.26055330
H        0.70001082       0.65299123      -1.95336930
H        1.95320475       0.65184766      -0.70015972
H        0.87078879       2.60317523       0.41544947
H       -0.42070523       2.60097795      -0.82775686
H       -0.11024621       4.70509494       0.19349594
H       -0.06922692       7.15030627       0.22185162
H        3.70984839       8.98236089      -3.91378240
H        4.60206542      10.95892244      -2.77620967
H        4.76306914      13.39487820      -2.96343421
H        0.52977824      13.74491071      -2.25355242
H        0.34406484      11.30989598      -2.09882806
H        2.84291173       4.69415123      -2.95663286
C       -0.91222290      -0.91222290      -0.91222290
C       -0.05423048      -1.74347709      -1.84806519
O       -0.92539317      -2.52805087      -2.66711955
C       -0.33903769      -3.36790681      -3.57334846
C        1.03416148      -3.53245801      -3.76815024
C        1.50416961      -4.43924953      -4.72370773
C        0.59818895      -5.17838120      -5.48987288
C       -0.76808340      -5.00713494      -5.30931680
O       -1.70130750      -5.69026691      -6.04376836
C       -1.24601617      -6.56539940      -7.00125934
C        0.03356555      -6.86727505      -7.28486342
C        0.37137839      -7.84001543      -8.35082653
C       -0.37490503      -9.01914734      -8.52440129
C       -0.04595128      -9.94130047      -9.52445931
C        1.04313643      -9.69978383     -10.35634593
Br       1.49831983     -10.95092332     -11.69760832
C        1.80162592      -8.54453065     -10.20025615
C        1.46342810      -7.62042870      -9.20580565
C        1.07428504      -6.15020217      -6.48962579
O        2.27720833      -6.34369779      -6.63192867
C       -1.23695494      -4.10790815      -4.35039391
H       -1.58937883      -0.25355511      -1.46343741
H       -1.51222319      -1.54299047      -0.24999848
H        0.60167571      -2.39881414      -1.26137612
H        0.55471350      -1.08388160      -2.47886147
H        1.76878464      -2.97640346      -3.19373396
H        2.57522350      -4.56776129      -4.86668994
H       -2.09955841      -6.99146643      -7.51496683
H       -1.21636070      -9.24717422      -7.87366261
H       -0.63950416     -10.84464212      -9.63723527
H        2.66093814      -8.35184342     -10.83733610
H        2.07743489      -6.72694545      -9.10327832
H       -2.30688144      -3.98112653      -4.20568786
C       -0.91222290       0.91222290       0.91222290
C       -2.30925099       0.32751693       1.00900483
O       -3.09924944       1.20129991       1.82001424
C       -4.39783329       0.83652432       2.04593535
C       -5.02129077      -0.31500880       1.56016479
C       -6.35769077      -0.57750264       1.87859951
C       -7.07322482       0.31707964       2.67976066
C       -6.46123159       1.47045746       3.15284610
O       -7.11832357       2.39110342       3.92591577
C       -8.43903900       2.15104256       4.22259336
C       -9.17019527       1.07881677       3.86956087
C      -10.59231378       0.95806760       4.26908219
C      -11.02439932       1.34350431       5.55055003
C      -12.36596510       1.21713995       5.92860601
C      -13.29046553       0.69127487       5.03125293
Br     -15.09968588       0.50566193       5.54486400
C      -12.88688946       0.29586887       3.76040255
C      -11.54675399       0.43310952       3.38294274
C       -8.47666692       0.04947002       3.03940599
O       -9.01892202      -0.98499155       2.66448765
C       -5.12540085       1.72843565       2.84142050
H       -0.92302720       1.91275474       0.47058940
H       -0.43442547       0.97675171       1.89403495
H       -2.26042407      -0.66852244       1.46661292
H       -2.75037775       0.25025614       0.00739569
H       -4.49962501      -1.03302110       0.93474888
H       -6.83629875      -1.47944912       1.50237811
H       -8.82052869       2.98305256       4.80241043
H      -10.32048244       1.73480206       6.28191302
H      -12.67339348       1.52284813       6.92513994
H      -13.59877936      -0.12650436       3.05596637
H      -11.25805196       0.11123093       2.38350599
H       -4.64634274       2.62820163       3.21915146
C        0.91222290      -0.91222290       0.91222290
C        0.95677840      -0.36285875       2.32613561
O        1.81346783      -1.20572989       3.10136587
C        1.97162517      -0.88681029       4.42185750
C        1.36820003       0.18510554       5.08335228
C        1.60469662       0.39215154       6.44624257
C        2.45134470      -0.47164956       7.14707086
C        3.06466440      -1.53013033       6.48974041
O        3.91757064      -2.39675061       7.12102152
C        4.17310101      -2.18453421       8.45503969
C        3.64576965      -1.23025712       9.24254615
C        4.01781226      -1.12810288      10.67354843
C        4.17162718      -2.27662646      11.47020002
C        4.51148169      -2.17611318      12.82411619
C        4.68985804      -0.92229805      13.40083724
Br       5.13396061      -0.78372176      15.23252944
C        4.53623245       0.22913807      12.63606650
C        4.20622404       0.12400795      11.28059017
C        2.69961347      -0.27940886       8.58652059
O        2.13294926       0.62529757       9.19076643
C        2.82252904      -1.74121957       5.13150839
H        1.90704014      -0.94070326       0.45862795
H        0.49544112      -1.92318528       0.88658573
H       -0.05435599      -0.36072281       2.75214774
H        1.35290010       0.66025164       2.31538111
H        0.70551149       0.87789532       4.57373661
H        1.12684384       1.22532370       6.95770760
H        4.88929553      -2.92425709       8.79243906
H        4.01445635      -3.26919831      11.05354286
H        4.62444132      -3.07973932      13.41720090
H        4.66224426       1.21347850      13.07947562
H        4.08781994       1.04208457      10.70705351
H        3.29788403      -2.57492301       4.62088879
