141
Properties=species:S:1:pos:R:3 pbc="F F F"
C        0.00000000       0.00000000       0.00000000
C        0.91222290       0.91222290      -0.91222290
C        0.63560869       2.37785233      -0.63231174
O        1.46372817       3.15768310      -1.49915232
C        1.37551246       4.51784724      -1.38693327
C        0.55314232       5.21459788      -0.49870657
C        0.56910350       6.61300015      -0.47668401
C        1.40524189       7.31552077      -1.34930247
C        2.21380955       6.62675029      -2.24397531
O        3.03875691       7.26253352      -3.13405235
C        3.04135430       8.63728051      -3.13404011
C        2.34467101       9.45205706      -2.32184485
C        2.45388821      10.92538110      -2.44019426
C        3.69227305      11.54738857      -2.67879204
C        3.79375799      12.93968847      -2.77826459
C        2.65704244      13.72817371      -2.62777717
C        1.42173834      13.13758150      -2.38384105
C        1.32290340      11.74488019      -2.29502266
C        1.44797942       8.78806640      -1.32949710
O        0.77140530       9.41001062      -0.51700221
C        2.20351842       5.23118528      -2.26055330
H        0.70001082       0.65299123      -1.95336930
H        1.95320475       0.65184766      -0.70015972
H        0.87078879       2.60317523       0.41544947
H       -0.42070523       2.60097795      -0.82775686
H       -0.11024621       4.70509494       0.19349594
H       -0.06922692       7.15030627       0.22185162
H        3.70984839       8.98236089      -3.91378240
H        4.60206542      10.95892244      -2.77620967
H        4.76306914      13.39487820      -2.96343421
H        0.52977824      13.74491071      -2.25355242
H        0.34406484      11.30989598      -2.09882806
H        2.84291173       4.69415123      -2.95663286
C        2.76160789      15.16151274      -2.71836030
C        2.84918146      16.36193417      -2.79422368
Br       2.99078051      18.30291410      -2.91688833
C       -0.91222290      -0.91222290      -0.91222290
C       -0.05624170      -1.71580823      -1.87372282
O       -0.92791638      -2.50119457      -2.69145265
C       -0.34292039      -3.31802342      -3.61934915
C        1.02945075      -3.45837476      -3.83752276
C        1.49838281      -4.34316969      -4.81400076
C        0.59202397      -5.08446619      -5.57762290
C       -0.77374370      -4.93709785      -5.37369359
O       -1.70770136      -5.62331054      -6.10433087
C       -1.25399383      -6.47665169      -7.08202940
C        0.02549870      -6.75439042      -7.38968120
C        0.36156468      -7.70548104      -8.47554720
C       -0.36929646      -8.89321842      -8.65593878
C       -0.04183914      -9.79487241      -9.67499951
C        1.03047828      -9.52395157     -10.51952004
C        1.77363574      -8.35963305     -10.35716357
C        1.43682031      -7.45608815      -9.34353841
C        1.06734892      -6.03350942      -6.59938243
O        2.27073470      -6.20622527      -6.76292755
C       -1.24137246      -4.05989949      -4.39398506
H       -1.60774352      -0.25578344      -1.44284439
H       -1.49226907      -1.56217327      -0.25076979
H        0.61853118      -2.36978512      -1.30726062
H        0.53279297      -1.03737645      -2.50344609
H        1.76431546      -2.89984260      -3.26582564
H        2.56893168      -4.45294243      -4.97521697
H       -2.10878872      -6.90798569      -7.58921727
H       -1.19704165      -9.14407564      -7.99608024
H       -0.62325990     -10.70545075      -9.79267090
H        2.61998142      -8.14403916     -11.00418364
H        2.03868185      -6.55489432      -9.23657641
H       -2.31074129      -3.95186528      -4.23108925
C        1.37594714     -10.45616118     -11.56126690
C        1.66527731     -11.23688672     -12.43372989
Br       2.13309972     -12.49925390     -13.84442876
C       -0.91222290       0.91222290       0.91222290
C       -2.30992775       0.32881257       1.00703244
O       -3.09986376       1.20257456       1.81812527
C       -4.39903426       0.83886786       2.04239084
C       -5.02315304      -0.31155987       1.55485360
C       -6.36013003      -0.57303930       1.87169693
C       -7.07557121       0.32145760       2.67303631
C       -6.46290220       1.47375407       3.14787887
O       -7.11984747       2.39428439       3.92121092
C       -8.44109591       2.15524393       4.21633508
C       -9.17296666       1.08409865       3.86150761
C      -10.59560180       0.96436843       4.25949334
C      -11.02857969       1.34896010       5.54091388
C      -12.37064638       1.22355584       5.91750884
C      -13.29477539       0.69950484       5.01871309
C      -12.89032744       0.30496173       3.74787171
C      -11.54968083       0.44124310       3.37188232
C       -8.47963636       0.05488816       3.03101840
O       -9.02254676      -0.97865931       2.65453067
C       -5.12650594       1.73071146       2.83803960
H       -0.92159187       1.91320392       0.47157556
H       -0.43533957       0.97529893       1.89457363
H       -2.26254763      -0.66772973       1.46369666
H       -2.75013340       0.25298774       0.00490844
H       -4.50157930      -1.02946875       0.92924224
H       -6.83926022      -1.47413391       1.49410142
H       -8.82233488       2.98705616       4.79660064
H      -10.32500257       1.73882873       6.27336622
H      -12.67876278       1.52857839       6.91404037
H      -13.60193531      -0.11600121       3.04230728
H      -11.26030396       0.12007168       2.37241324
H       -4.64692929       2.62962361       3.21714293
C      -14.67386873       0.55905784       5.40855437
C      -15.82885939       0.44143348       5.73504644
Br     -17.69638161       0.25124483       6.26295650
C        0.91222290      -0.91222290       0.91222290
C        0.92873339      -0.38273767       2.33430169
O        1.78638202      -1.22443636       3.10974521
C        1.92112458      -0.92238478       4.43678360
C        1.29294949       0.13118469       5.10468196
C        1.50702631       0.32188810       6.47364944
C        2.35599583      -0.53980560       7.17426370
C        2.99381037      -1.57986212       6.51086265
O        3.85006658      -2.44328198       7.14199420
C        4.08350931      -2.24672197       8.48244364
C        3.53131744      -1.31150292       9.27575256
C        3.88145709      -1.22472463      10.71328184
C        4.04048075      -2.38231887      11.49565405
C        4.35955896      -2.29652680      12.85562531
C        4.51160617      -1.04875291      13.45263424
C        4.35227636       0.11129597      12.70218049
C        4.04313103       0.02105057      11.34072579
C        2.58096713      -0.36484161       8.61973418
O        1.99277215       0.52290160       9.22854757
C        2.77408803      -1.77475535       5.14641362
H        1.91369822      -0.92000398       0.47266915
H        0.51047741      -1.92853566       0.86619906
H       -0.08828333      -0.40112971       2.74566817
H        1.31016536       0.64595182       2.34381603
H        0.62764955       0.82175976       4.59546300
H        1.00997622       1.14071351       6.98996502
H        4.80543079      -2.98097477       8.81958611
H        3.90358895      -3.37091088      11.06269770
H        4.47709761      -3.20691788      13.43736606
H        4.45775381       1.09082912      13.16131668
H        3.91966252       0.94552969      10.77865605
H        3.26863647      -2.59415964       4.63089971
C        4.82855384      -0.95850826      14.85441884
C        5.09399750      -0.88292835      16.02841345
Br       5.52319746      -0.76072204      17.92666344
