166
Properties=species:S:1:pos:R:3 pbc="F F F"
C        1.82738761       1.82738761      -1.82738761
C        2.54968811       2.86718454      -0.98723685
O        1.61883048       3.87897455      -0.58950997
C        2.09373861       4.87921701       0.21370880
C        1.11883916       5.75986766       0.69382185
C        1.46981584       6.82544620       1.52650394
C        2.80857336       7.01200185       1.87766954
C        3.78110190       6.14660703       1.39633466
C        3.42978688       5.08102226       0.56276578
O        5.11008313       6.27943153       1.69801301
C        5.50405270       7.27967896       2.57478826
C        6.98040515       7.22575835       2.85883784
C        4.66075478       8.18194722       3.12165863
C        5.13121597       9.22553195       4.04624831
C        5.09366721       9.00686774       5.42973906
C        5.57226105       9.98024281       6.30977603
C        6.08409835      11.17497594       5.80643413
Br       6.73617959      12.49023263       6.99750925
C        6.12017257      11.40737388       4.43238905
C        5.64408312      10.43250401       3.55212870
C        3.21537344       8.11228079       2.76334645
O        2.39177053       8.91691328       3.18316622
H        1.16400109       2.27888846      -2.56845972
H        2.53357469       1.14923703      -2.31265248
H        3.32736698       3.32541742      -1.61002156
H        3.00991255       2.40159895      -0.10655768
H        0.07576033       5.60962159       0.42365345
H        0.70208208       7.50011587       1.89901863
H        4.22060542       4.42930549       0.20706253
H        7.21972740       7.48981713       3.89284453
H        7.52000084       7.89726483       2.18354411
H        7.36431059       6.20998854       2.69974705
H        4.69158389       8.07877837       5.82978840
H        5.53784869       9.79778083       7.38064032
H        6.51185461      12.34111255       4.03794614
H        5.67067272      10.62353290       2.48155002
C       -1.82738761      -1.82738761      -1.82738761
C       -2.22955057      -1.08430231      -3.09025663
O       -3.21986009      -0.10407903      -2.76337589
C       -3.66754255       0.69088493      -3.78258921
C       -4.52212416       1.72569523      -3.38845604
C       -5.04939768       2.61183039      -4.33119081
C       -4.72061672       2.45739961      -5.67968856
C       -3.88061756       1.42650773      -6.07726443
C       -3.35377006       0.53971753      -5.13399084
O       -3.52601032       1.21772336      -7.38321469
C       -3.96710122       2.10878576      -8.35062794
C       -3.41481664       1.77775417      -9.71026318
C       -4.77986756       3.15777354      -8.09894934
C       -5.22037502       4.07328127      -9.16340585
C       -4.50542134       5.25138337      -9.41675792
C       -4.89885065       6.10559852     -10.44947570
C       -6.01072372       5.78418700     -11.22610344
Br      -6.54014911       6.93807296     -12.62682682
C       -6.73457434       4.61867519     -10.97925825
C       -6.33923950       3.76289958      -9.94811850
C       -5.24322134       3.37818837      -6.69927480
O       -6.01329632       4.28121004      -6.39343131
H       -2.68883763      -2.10613046      -1.21638118
H       -1.22566162      -2.70921071      -2.06059187
H       -2.66547267      -1.81070740      -3.78662588
H       -1.35640953      -0.60789852      -3.55376114
H       -4.77264567       1.84774545      -2.33682825
H       -5.70787717       3.41677182      -4.01207399
H       -2.70292218      -0.25309786      -5.48682834
H       -3.18650654       2.66997508     -10.30016854
H       -4.12311264       1.15361024     -10.26421916
H       -2.47576276       1.21754312      -9.61633244
H       -3.63942201       5.51077374      -8.81192558
H       -4.33521762       7.01600351     -10.63577509
H       -7.60619541       4.36974943     -11.57857503
H       -6.91242655       2.85804883      -9.75827787
C       -1.82738761       1.82738761       1.82738761
C       -2.64913742       0.97514007       2.77983201
O       -3.70135243       0.33619683       2.04976575
C       -4.51882646      -0.50869086       2.74911123
C       -5.43612287      -1.21896623       1.96772833
C       -6.32866309      -2.11752286       2.55761787
C       -6.30415792      -2.30286434       3.94161208
C       -5.40231463      -1.59353521       4.72259485
C       -4.50992952      -0.69415182       4.13226567
O       -5.33287746      -1.72511320       6.08373739
C       -6.15002092      -2.65336234       6.71228481
C       -5.88170408      -2.72519439       8.19081597
C       -7.06374275      -3.41395252       6.07125314
C       -7.90784371      -4.38399087       6.78664677
C       -7.50887823      -5.72351973       6.88543739
C       -8.28902731      -6.64023718       7.59393770
C       -9.47129086      -6.21844438       8.19979367
Br     -10.52454529      -7.45831727       9.16267495
C       -9.88265257      -4.89004839       8.10255323
C       -9.10076429      -3.97259138       7.39628552
C       -7.21692870      -3.25008635       4.59746544
O       -8.04957899      -3.87136892       3.94730752
H       -2.45169049       2.41182817       1.14783061
H       -1.14208244       2.48191037       2.37147139
H       -3.09156735       1.63870368       3.53253492
H       -2.01627307       0.22742169       3.27437443
H       -5.44993538      -1.07735564       0.88914874
H       -7.03326266      -2.66912875       1.93904542
H       -3.82285164      -0.15868068       4.77867742
H       -5.97194057      -3.74106663       8.58582606
H       -6.56950587      -2.06792811       8.73214380
H       -4.85850364      -2.39494650       8.41099494
H       -6.58977948      -6.06068052       6.41147489
H       -7.96786524      -7.67622190       7.66334586
H      -10.80778773      -4.56049349       8.56772678
H       -9.43124825      -2.93897771       7.32038507
C        1.82738761      -1.82738761       1.82738761
C        3.12328072      -2.16932461       1.11150418
O        2.85573507      -3.13858353       0.09299640
C        3.91110653      -3.53161204      -0.68347174
C        3.57385241      -4.36558970      -1.75455715
C        4.55792482      -4.83762229      -2.62678902
C        5.89065608      -4.47403749      -2.42178790
C        6.23190888      -3.65440843      -1.35494305
C        5.24729175      -3.18283729      -0.48208568
O        7.51974150      -3.26792898      -1.09616883
C        8.52599491      -3.65297825      -1.97002976
C        9.85784549      -3.07113216      -1.58165200
C        8.33021423      -4.44054314      -3.04971401
C        9.43412739      -4.82140231      -3.94503010
C        9.70027760      -4.06378928      -5.09327100
C       10.76924016      -4.40041307      -5.92692539
C       11.56949616      -5.49814235      -5.61499836
Br      13.01911280      -5.95066724      -6.74087707
C       11.31048909      -6.26406945      -4.47940113
C       10.24299915      -5.92554272      -3.64408345
C        6.95239162      -4.93808365      -3.32616749
O        6.69688893      -5.68903265      -4.26040399
H        1.23489989      -2.71457145       2.06187793
H        2.01606123      -1.24613540       2.73326758
H        3.81084366      -2.60639399       1.84556829
H        3.57387663      -1.26880248       0.67539009
H        2.53438910      -4.64320914      -1.91586977
H        4.28287279      -5.48045027      -3.46014373
H        5.55662410      -2.54627020       0.33995408
H       10.46660847      -2.79848701      -2.44839548
H       10.41442350      -3.78142387      -0.96212581
H        9.71891117      -2.15272916      -0.99708825
H        9.07730918      -3.20852908      -5.34526440
H       10.96509948      -3.80410395      -6.81421422
H       11.92842668      -7.12479090      -4.23819656
H       10.04405621      -6.53133289      -2.76273351
C       -0.00445707       0.01189536      -1.78238275
H       -0.66409135       0.67374010      -2.43557963
H        0.65740317      -0.63156657      -2.45157240
C       -0.90989263      -0.90692880      -0.91072765
C        0.90977584       0.90977584      -0.90977584
C       -0.00465871       1.77757030       0.00794375
H       -0.66225468       2.44313916      -0.64384735
H        0.64322798       2.43503045       0.67728295
C       -1.78241447       0.00034974      -0.00472694
H       -2.45427497      -0.65498947       0.64260836
H       -2.43311707       0.67328779      -0.65473579
C       -0.91132561       0.90220522       0.91563759
C       -0.01476271      -0.02253852       1.78660255
H       -0.67934791      -0.69751639       2.42135241
H        0.63392994       0.61504881       2.47327442
C        0.01484550      -1.77751727      -0.01636693
H        0.67870853      -2.42144646      -0.68295456
H       -0.62264859      -2.45592969       0.64226336
C        1.78714474       0.01002794       0.00389507
H        2.44202412       0.67113390       0.66197326
H        2.45385902      -0.65136977      -0.64189061
C        0.91606151      -0.90478549       0.90901405
