74
Properties=species:S:1:pos:R:3 pbc="F F F"
O        2.46174829      -0.06769037      -3.13861501
C        2.48723528       1.28332818      -2.80892882
C        1.78214036       1.78214036      -1.78214036
C        1.83397336       3.22867113      -1.46447170
O        1.23286404       3.73911892      -0.52151136
C        2.64312203       4.11560058      -2.33407668
C        3.35079837       3.62794559      -3.36101993
Br       4.38143882       4.72780397      -4.47864243
C        3.34741582       2.16818860      -3.65739730
O        4.02053356       1.68880881      -4.56496896
O        2.62251888       5.46805543      -2.01750376
H        1.87104977      -0.53687652      -2.52147837
H        2.04511745       5.55327298      -1.22703465
O       -2.65545108       0.09844269      -2.97566453
C       -2.57940012      -1.26871919      -2.73137297
C       -1.78214036      -1.78214036      -1.78214036
C       -1.72740375      -3.24540617      -1.55430628
O       -1.03835665      -3.77201498      -0.68312269
C       -2.53574905      -4.12843658      -2.42861366
C       -3.33492515      -3.62628472      -3.37855403
Br      -4.36695458      -4.72069528      -4.50023535
C       -3.43736682      -2.15418415      -3.58145074
O       -4.19405324      -1.66520085      -4.41505725
O       -2.41452866      -5.49332519      -2.20022423
H       -2.05583261       0.56651384      -2.36633284
H       -1.78411728      -5.58873006      -1.45257774
O       -0.53503404       3.75206167       1.24557722
C       -1.57001002       3.10096422       1.90851804
C       -1.78214036       1.78214036       1.78214036
C       -2.89784716       1.12574486       2.50352417
O       -3.12537281      -0.08104461       2.44916613
C       -3.79929019       1.96596424       3.32754486
C       -3.59621998       3.28288013       3.46066378
Br      -4.72248693       4.37005610       4.49534218
C       -2.44691258       3.94410857       2.78198056
O       -2.21208375       5.14076140       2.92146618
O       -4.85362359       1.30714221       3.94731228
H       -0.03936501       3.10466858       0.71161802
H       -4.76641091       0.36060187       3.69841230
O        0.55662325      -3.75793156       1.21811811
C        1.58028100      -3.10376080       1.89545047
C        1.78214036      -1.78214036       1.78214036
C        2.88597960      -1.12248634       2.51865026
O        3.10358224       0.08662024       2.47653233
C        3.78755615      -1.96204494       3.34319820
C        3.59468243      -3.28173829       3.46334317
Br       4.72139377      -4.36813014       4.49836130
C        2.45692280      -3.94687807       2.76920084
O        2.23120518      -5.14664242       2.89646373
O        4.83087134      -1.29961428       3.97759246
H        0.05997673      -3.11022056       0.68545431
H        4.73765228      -0.35174754       3.73602526
C       -0.00445707       0.01189536      -1.78238275
H       -0.66409135       0.67374010      -2.43557963
H        0.65740317      -0.63156657      -2.45157240
C       -0.90989263      -0.90692880      -0.91072765
C        0.90977584       0.90977584      -0.90977584
C       -0.00465871       1.77757030       0.00794375
H       -0.66225468       2.44313916      -0.64384735
H        0.64322798       2.43503045       0.67728295
C       -1.78241447       0.00034974      -0.00472694
H       -2.45427497      -0.65498947       0.64260836
H       -2.43311707       0.67328779      -0.65473579
C       -0.91132561       0.90220522       0.91563759
C       -0.01476271      -0.02253852       1.78660255
H       -0.67934791      -0.69751639       2.42135241
H        0.63392994       0.61504881       2.47327442
C        0.01484550      -1.77751727      -0.01636693
H        0.67870853      -2.42144646      -0.68295456
H       -0.62264859      -2.45592969       0.64226336
C        1.78714474       0.01002794       0.00389507
H        2.44202412       0.67113390       0.66197326
H        2.45385902      -0.65136977      -0.64189061
C        0.91606151      -0.90478549       0.90901405
