82
Properties=species:S:1:pos:R:3 pbc="F F F"
O        2.46174829      -0.06769037      -3.13861501
C        2.48723528       1.28332818      -2.80892882
C        1.78214036       1.78214036      -1.78214036
C        1.83397336       3.22867113      -1.46447170
O        1.23286404       3.73911892      -0.52151136
C        2.64312203       4.11560058      -2.33407668
C        3.35079837       3.62794559      -3.36101993
C        3.34741582       2.16818860      -3.65739730
O        4.02053356       1.68880881      -4.56496896
O        2.62251888       5.46805543      -2.01750376
H        1.87104977      -0.53687652      -2.52147837
H        2.04511745       5.55327298      -1.22703465
C        4.14172717       4.47199326      -4.21870005
C        4.80413003       5.17888318      -4.93700714
Br       5.87517944       6.32186439      -6.09844896
O       -2.19232386      -0.00727932      -3.33306974
C       -2.35903724      -1.31897074      -2.90148430
C       -1.78214036      -1.78214036      -1.78214036
C       -1.98223809      -3.18765121      -1.35722689
O       -1.50302085      -3.66135906      -0.32911441
C       -2.79327660      -4.07922057      -2.22030211
C       -3.37367873      -3.62694270      -3.33914246
C       -3.22224850      -2.20266316      -3.74809006
O       -3.77842635      -1.75112246      -4.74476252
O       -2.91330277      -5.39708597      -1.79768934
H       -1.61409002       0.46498890      -2.70655048
H       -2.40929394      -5.45960877      -0.95652237
C       -4.16389445      -4.47633522      -4.19219080
C       -4.82570012      -5.18770145      -4.90661879
Br      -5.89578390      -6.33792048      -6.06178841
O       -0.94136980       3.79389746       0.79740567
C       -1.76333213       3.12093075       1.69522940
C       -1.78214036       1.78214036       1.78214036
C       -2.67440969       1.10224403       2.75046248
O       -2.71607181      -0.11775052       2.89517303
C       -3.57671888       1.93169686       3.58438355
C       -3.56557148       3.26845282       3.50573959
C       -2.63543030       3.96426273       2.57330868
O       -2.57358421       5.18860347       2.51212364
O       -4.42222797       1.24182996       4.44402015
H       -0.42717995       3.14378560       0.28468605
H       -4.22269237       0.28850084       4.31423187
C       -4.43466336       4.09244468       4.30531243
C       -5.16252780       4.78253786       4.97495468
Br      -6.33942305       5.89836018       6.05770957
O        0.94189004      -3.79387238       0.79691051
C        1.76357965      -3.12091888       1.69499374
C        1.78214036      -1.78214036       1.78214036
C        2.67412353      -1.10225728       2.75073539
O        2.71554872       0.11771934       2.89566494
C        3.57643195      -1.93169824       3.58466910
C        3.56553028      -3.26844244       3.50579117
C        2.63567180      -3.96425191       2.57307801
O        2.57404890      -5.18859272       2.51166971
O        4.42167201      -1.24183384       4.44457223
H        0.42767634      -3.14376078       0.28421448
H        4.22199344      -0.28851685       4.31491480
C        4.43462640      -4.09242223       4.30537184
C        5.16249439      -4.78250531       4.97502065
Br       6.33939538      -5.89831128       6.05778614
C       -0.00445707       0.01189536      -1.78238275
H       -0.66409135       0.67374010      -2.43557963
H        0.65740317      -0.63156657      -2.45157240
C       -0.90989263      -0.90692880      -0.91072765
C        0.90977584       0.90977584      -0.90977584
C       -0.00465871       1.77757030       0.00794375
H       -0.66225468       2.44313916      -0.64384735
H        0.64322798       2.43503045       0.67728295
C       -1.78241447       0.00034974      -0.00472694
H       -2.45427497      -0.65498947       0.64260836
H       -2.43311707       0.67328779      -0.65473579
C       -0.91132561       0.90220522       0.91563759
C       -0.01476271      -0.02253852       1.78660255
H       -0.67934791      -0.69751639       2.42135241
H        0.63392994       0.61504881       2.47327442
C        0.01484550      -1.77751727      -0.01636693
H        0.67870853      -2.42144646      -0.68295456
H       -0.62264859      -2.45592969       0.64226336
C        1.78714474       0.01002794       0.00389507
H        2.44202412       0.67113390       0.66197326
H        2.45385902      -0.65136977      -0.64189061
C        0.91606151      -0.90478549       0.90901405
