94
Properties=species:S:1:pos:R:3 pbc="F F F"
N        2.76560796      -3.36841497      -3.45269447
C        2.95439221      -2.25723407      -3.17341672
C        3.22610093      -0.85940999      -2.80165852
O        2.20777322       0.00013743      -3.34368872
C        2.40497261       1.30277333      -2.95899741
C        1.79623700       1.79623700      -1.79623700
C        1.97112507       3.12966190      -1.42102119
C        2.73478199       3.98055602      -2.22507382
C        2.92559347       5.39165995      -1.83511040
O        2.46874455       5.83692049      -0.79058017
C        3.31328267       3.51302509      -3.40670924
C        3.13740330       2.17652909      -3.77597320
Br       3.90220990       1.60373370      -5.41668325
H        4.20862764      -0.56921560      -3.19168235
H        3.25566369      -0.77775793      -1.70883238
H        1.50737748       3.51475681      -0.51386746
H        3.50508473       6.02555393      -2.52715765
H        3.88917919       4.18312787      -4.04094143
N        0.12029326      -5.12448926       2.15430854
C       -0.22307191      -4.75566320       1.10816025
C       -0.62832911      -4.30654072      -0.23347963
O       -1.84980703      -3.55105757      -0.15073477
C       -2.21621763      -3.06834267      -1.38218306
C       -1.79623700      -1.79623700      -1.79623700
C       -2.19422244      -1.29178148      -3.03580424
C       -3.03734915      -2.04979748      -3.85326520
C       -3.46211777      -1.52430331      -5.16594273
O       -3.05693923      -0.44984058      -5.58946540
C       -3.49595636      -3.30088686      -3.43617377
C       -3.09202303      -3.80226186      -2.19562069
Br      -3.78367726      -5.48534889      -1.65360069
H       -0.77188794      -5.18257639      -0.87663007
H        0.17285343      -3.69496309      -0.66462848
H       -1.86302534      -0.30784161      -3.36513479
H       -4.15808681      -2.14887530      -5.75083419
H       -4.16894093      -3.87887621      -4.06543135
N        0.25655985       5.16051319      -2.05406588
C       -0.11340375       4.77885148      -1.02168038
C       -0.55233998       4.31259347       0.30341601
O       -1.78588477       3.58209673       0.18361788
C       -2.18452272       3.08357304       1.39864760
C       -1.79623700       1.79623700       1.79623700
C       -2.22699756       1.27642835       3.01838226
C       -3.07122219       2.03495238       3.83423725
C       -3.53053558       1.49325928       5.12856896
O       -3.15354583       0.40360085       5.53909853
C       -3.49845458       3.30206910       3.43249331
C       -3.06178689       3.81870382       2.20941488
Br      -3.71156853       5.52441416       1.68664415
H       -0.69173857       5.17906669       0.96028913
H        0.22898902       3.67800003       0.73772712
H       -1.92049000       0.28041871       3.33509304
H       -4.22572641       2.11992502       5.71214488
H       -4.17237841       3.88090633       4.05996375
N        3.24758126       3.38397183       2.98627803
C        3.33637251       2.24487465       2.77907700
C        3.48056990       0.80791778       2.49569734
O        2.44827562       0.06777540       3.17109916
C        2.52405918      -1.26978533       2.87289885
C        1.79623700      -1.79623700       1.79623700
C        1.84838373      -3.16207533       1.51134911
C        2.60897081      -4.00967279       2.32176823
C        2.67039655      -5.45501244       2.02695482
O        2.10595292      -5.93668527       1.05360701
C        3.30632433      -3.50541137       3.42128129
C        3.25295792      -2.13686086       3.70008680
Br       4.17764144      -1.50975825       5.23522715
H        4.46694574       0.47249293       2.83664157
H        3.42180486       0.64783710       1.41277037
H        1.29166107      -3.57374876       0.67059191
H        3.25456434      -6.08072428       2.72250768
H        3.88001575      -4.17092242       4.06231032
C       -0.00445707       0.01189536      -1.78238275
H       -0.66409135       0.67374010      -2.43557963
H        0.65740317      -0.63156657      -2.45157240
C       -0.90989263      -0.90692880      -0.91072765
C        0.90977584       0.90977584      -0.90977584
C       -0.00465871       1.77757030       0.00794375
H       -0.66225468       2.44313916      -0.64384735
H        0.64322798       2.43503045       0.67728295
C       -1.78241447       0.00034974      -0.00472694
H       -2.45427497      -0.65498947       0.64260836
H       -2.43311707       0.67328779      -0.65473579
C       -0.91132561       0.90220522       0.91563759
C       -0.01476271      -0.02253852       1.78660255
H       -0.67934791      -0.69751639       2.42135241
H        0.63392994       0.61504881       2.47327442
C        0.01484550      -1.77751727      -0.01636693
H        0.67870853      -2.42144646      -0.68295456
H       -0.62264859      -2.45592969       0.64226336
C        1.78714474       0.01002794       0.00389507
H        2.44202412       0.67113390       0.66197326
H        2.45385902      -0.65136977      -0.64189061
C        0.91606151      -0.90478549       0.90901405
