69
Properties=species:S:1:pos:R:3 pbc="F F F"
C        0.00000000       0.00000000       0.00000000
C        2.46587472       4.10587932      -5.47504976
O        2.50532490       3.43695859      -4.21517387
C        1.36180958       2.76802722      -3.90731033
O        0.35975098       2.71428172      -4.60740462
C        1.49430533       2.12024984      -2.62654543
N        0.47749185       1.36608523      -2.07607234
H       -0.42180490       1.21031758      -2.51425367
C        0.86539303       0.86539303      -0.86539303
C        2.14212998       1.29773409      -0.62431327
C        2.54744111       2.08666729      -1.72252691
H        3.42930223       4.60067690      -5.62581711
H        1.68060051       4.86811452      -5.48016446
H        2.31544319       3.38738398      -6.28679904
H        3.50198562       2.58187715      -1.85337210
C        2.98563871       1.03922129       0.51378345
C        3.69207727       0.82271683       1.46693946
Br       4.83432867       0.47264742       3.00811212
C       -2.79347975      -3.55441649      -5.69890754
O       -2.69151293      -3.12361888      -4.34232556
C       -1.63581777      -2.30089652      -4.10043284
O       -0.81566953      -1.93451429      -4.93125350
C       -1.61610882      -1.91245432      -2.71253745
N       -0.64866571      -1.07254014      -2.19844357
H        0.10742774      -0.67117080      -2.73902329
C       -0.86539303      -0.86539303      -0.86539303
C       -1.97971893      -1.57647222      -0.50798619
C       -2.45947850      -2.23822082      -1.65893599
H       -3.67267390      -4.19901449      -5.78410785
H       -1.91022460      -4.13395912      -5.98469578
H       -2.92782600      -2.69661374      -6.36518647
H       -3.32606460      -2.88473524      -1.72643503
C       -2.61112542      -1.68185641       0.78190529
C       -3.13992835      -1.77011568       1.86218940
Br      -3.99495797      -1.91282344       3.60891744
C       -3.12490651       3.16677193       5.75512535
O       -2.87985517       2.90337084       4.37423136
C       -1.91444558       1.97168683       4.15101472
O       -1.27988241       1.38461780       5.01693711
C       -1.74000071       1.76599029       2.73510960
N       -0.82314283       0.86541985       2.23108674
H       -0.21302178       0.29075497       2.79898961
C       -0.86539303       0.86539303       0.86539303
C       -1.81412046       1.77317605       0.47688083
C       -2.36964755       2.34525398       1.64173378
H       -3.91694898       3.91782036       5.82102691
H       -2.22654406       3.56798146       6.23435397
H       -3.46516358       2.25987029       6.26459234
H       -3.14646542       3.09859182       1.69217763
C       -2.22929198       2.13534273      -0.85355816
C       -2.57699812       2.43865732      -1.96780082
Br      -3.13920955       2.92909137      -3.76943695
C        4.33359179      -2.37537080       5.33784120
O        3.56665835      -2.45377596       4.13702305
C        2.93577940      -1.29513677       3.80623095
O        2.98370445      -0.25266940       4.44506348
C        2.19426368      -1.46488866       2.58194825
N        1.46422131      -0.43848784       2.01694027
H        1.39046459       0.49340401       2.40570577
C        0.86539303      -0.86539303       0.86539303
C        1.20547148      -2.17879959       0.67990627
C        2.03896329      -2.56640099       1.75127104
H        4.80072412      -3.34979382       5.50527831
H        3.68723343      -2.14993960       6.19170646
H        5.12436945      -1.62508141       5.24017535
H        2.48553932      -3.54027492       1.91142063
C        0.82599047      -3.07038692      -0.38530084
C        0.50817511      -3.81709131      -1.27741179
Br      -0.00570543      -5.02444916      -2.71987975
