114
Properties=species:S:1:pos:R:3 pbc="F F F"
O        5.95521181       2.04516976      -1.11731760
C        5.45044606       2.69138303      -2.02419883
C        3.99801175       2.65917633      -2.28763646
C        3.16470188       1.83906368      -1.52156118
C        1.79619474       1.79619474      -1.79619474
C        1.26218896       2.55539938      -2.84732006
O       -0.08116481       2.49871073      -3.12920227
C       -0.33149939       1.49942762      -4.12788057
C       -1.82089330       1.38429261      -4.43704788
O       -2.30980619       0.42153327      -5.02107512
N       -2.59076181       2.45211560      -4.07983852
C        2.10000294       3.41864535      -3.56834160
C        3.47099493       3.46037825      -3.30242518
H        6.06203718       3.32343734      -2.69075953
H        3.58676240       1.23935211      -0.71635679
H        0.00735780       0.51638177      -3.78103652
H        0.17275293       1.75377654      -5.06709854
H       -2.21939448       3.16756403      -3.46715105
H       -3.58983520       2.38923777      -4.22040861
H        4.11830931       4.11804969      -3.87773281
C        1.58592255       4.29940182      -4.58499758
C        1.15538023       5.03703537      -5.43644697
Br       0.45922971       6.22972642      -6.81316862
O       -1.20748629      -1.93620715      -5.97400572
C       -2.09777740      -2.60246843      -5.46578209
C       -2.36151422      -2.56990020      -4.01341013
C       -1.55447101      -1.79929443      -3.17156129
C       -1.79619474      -1.79619474      -1.79619474
C       -2.82944599      -2.57699895      -1.25846346
O       -3.05510009      -2.58825807       0.09660997
C       -2.33310572      -3.66828844       0.70558535
C       -2.53214632      -3.68623390       2.21793304
O       -1.80170357      -4.31192031       2.98082167
N       -3.61922259      -3.00873797       2.68676825
C       -3.66831105      -3.29783920      -2.12083963
C       -3.42683086      -3.31004261      -3.49692488
H       -2.74018132      -3.26371453      -6.07233820
H       -0.74329500      -1.20679916      -3.59237714
H       -1.25797200      -3.56533009       0.51852600
H       -2.68364094      -4.63401959       0.32403252
H       -4.12474115      -2.37291205       2.08233259
H       -3.75314973      -2.95388769       3.68722624
H       -4.06965531      -3.88612467      -4.15831183
C       -4.80864335      -4.02914144      -1.63253717
C       -5.76367165      -4.64160706      -1.22358386
Br      -7.30787163      -5.63191217      -0.56234094
O       -5.88199485       2.34686210       0.88884221
C       -5.39799568       2.90500687       1.86302537
C       -3.96954565       2.76567235       2.20960655
C       -3.13969407       1.94152147       1.44411120
C       -1.79619474       1.79619474       1.79619474
C       -1.28546124       2.45650478       2.92294238
O        0.03170211       2.29856693       3.27988337
C        0.15881722       1.22800024       4.22662579
C        1.61628368       1.00100458       4.61572629
O        2.00940415      -0.02362631       5.16583266
N        2.46914122       2.03744386       4.37288968
C       -2.11439913       3.32658385       3.64600689
C       -3.46099127       3.47041842       3.30238867
H       -6.01184035       3.53372328       2.53067042
H       -3.54495385       1.41845471       0.57906275
H       -0.21520651       0.29059867       3.79897091
H       -0.38769838       1.45748382       5.14844581
H        2.18026113       2.80997822       3.78560352
H        3.45186432       1.90344076       4.56823475
H       -4.10314898       4.13232271       3.87862012
C       -1.61413085       4.11129092       4.74490018
C       -1.19515616       4.76848308       5.66522332
Br      -0.51770953       5.83110723       7.15330798
O        0.46612238      -3.05034629       5.60123050
C        1.57146727      -3.39021361       5.20434704
C        2.09393367      -2.95817346       3.89271741
C        1.30237625      -2.17739470       3.04555578
C        1.79619474      -1.79619474       1.79619474
C        3.07083026      -2.21039192       1.38368622
O        3.54892192      -1.85083690       0.14698937
C        3.23983329      -2.87020593      -0.81423042
C        3.72448406      -2.48419691      -2.20823379
O        3.32738527      -3.03589106      -3.23047413
N        4.68531721      -1.51750651      -2.26163141
C        3.87670370      -2.94266158       2.26762460
C        3.38517442      -3.33264759       3.51597635
H        2.22531349      -4.04189383       5.80902673
H        0.30689714      -1.87138874       3.36418542
H        2.15632980      -3.02425808      -0.87581179
H        3.73278683      -3.81340286      -0.55256169
H        4.89650847      -0.96122639      -1.44241424
H        4.99197953      -1.19825086      -3.17041921
H        4.00832884      -3.91646335       4.18929962
C        5.23174509      -3.30109072       1.93748614
C        6.36659225      -3.60127512       1.66099519
Br       8.20154412      -4.08664792       1.21393270
C       -0.00445707       0.01189536      -1.78238275
H       -0.66409135       0.67374010      -2.43557963
H        0.65740317      -0.63156657      -2.45157240
C       -0.90989263      -0.90692880      -0.91072765
C        0.90977584       0.90977584      -0.90977584
C       -0.00465871       1.77757030       0.00794375
H       -0.66225468       2.44313916      -0.64384735
H        0.64322798       2.43503045       0.67728295
C       -1.78241447       0.00034974      -0.00472694
H       -2.45427497      -0.65498947       0.64260836
H       -2.43311707       0.67328779      -0.65473579
C       -0.91132561       0.90220522       0.91563759
C       -0.01476271      -0.02253852       1.78660255
H       -0.67934791      -0.69751639       2.42135241
H        0.63392994       0.61504881       2.47327442
C        0.01484550      -1.77751727      -0.01636693
H        0.67870853      -2.42144646      -0.68295456
H       -0.62264859      -2.45592969       0.64226336
C        1.78714474       0.01002794       0.00389507
H        2.44202412       0.67113390       0.66197326
H        2.45385902      -0.65136977      -0.64189061
C        0.91606151      -0.90478549       0.90901405
