106
Properties=species:S:1:pos:R:3 pbc="F F F"
O        5.95521181       2.04516976      -1.11731760
C        5.45044606       2.69138303      -2.02419883
C        3.99801175       2.65917633      -2.28763646
C        3.16470188       1.83906368      -1.52156118
C        1.79619474       1.79619474      -1.79619474
C        1.26218896       2.55539938      -2.84732006
O       -0.08116481       2.49871073      -3.12920227
C       -0.33149939       1.49942762      -4.12788057
C       -1.82089330       1.38429261      -4.43704788
O       -2.30980619       0.42153327      -5.02107512
N       -2.59076181       2.45211560      -4.07983852
C        2.10000294       3.41864535      -3.56834160
Br       1.42204836       4.58016191      -4.90907857
C        3.47099493       3.46037825      -3.30242518
H        6.06203718       3.32343734      -2.69075953
H        3.58676240       1.23935211      -0.71635679
H        0.00735780       0.51638177      -3.78103652
H        0.17275293       1.75377654      -5.06709854
H       -2.21939448       3.16756403      -3.46715105
H       -3.58983520       2.38923777      -4.22040861
H        4.11830931       4.11804969      -3.87773281
O       -0.92761304      -2.29276058      -5.89732555
C       -1.89924714      -2.85446235      -5.41231843
C       -2.26118120      -2.69370412      -3.98993922
C       -1.45933948      -1.92027165      -3.14571561
C       -1.79619474      -1.79619474      -1.79619474
C       -2.92076068      -2.45954916      -1.28459856
O       -3.24129185      -2.35241825       0.04696190
C       -2.64762493      -3.43136700       0.78318312
C       -2.95324328      -3.32086387       2.27365996
O       -2.32763202      -3.93685093       3.13168074
N       -4.01622729      -2.53513709       2.61017207
C       -3.74904834      -3.18279793      -2.15514361
Br      -5.36303710      -3.98768294      -1.56056881
C       -3.41307323      -3.31596716      -3.50475797
H       -2.54559522      -3.51289694      -6.01774189
H       -0.57811879      -1.41977192      -3.54458059
H       -1.55730378      -3.41866211       0.67118979
H       -3.04250178      -4.39615674       0.44503051
H       -4.42848506      -1.91288952       1.92605397
H       -4.21560084      -2.39551258       3.59130224
H       -4.04954605      -3.89380953      -4.17073623
O       -5.74325029       2.74014637       0.63430251
C       -5.29904280       3.18337893       1.68360619
C       -3.91750194       2.90403904       2.12328356
C       -3.09240811       2.07505974       1.35785888
C       -1.79619474       1.79619474       1.79619474
C       -1.33008934       2.32745835       3.00736071
O       -0.06138358       2.03781725       3.44754736
C       -0.09102251       0.89295059       4.31183571
C        1.30940567       0.52097464       4.78887821
O        1.57952850      -0.57010785       5.28243856
N        2.25387746       1.50057031       4.69449945
C       -2.14743688       3.20517585       3.73437715
Br      -1.53128974       4.07270009       5.30729901
C       -3.44751723       3.48217614       3.30410498
H       -5.91611202       3.80799790       2.35212413
H       -3.46452667       1.65222318       0.42572146
H       -0.49818010       0.02318211       3.78341388
H       -0.69137656       1.09639032       5.20586113
H        2.07158072       2.33545313       4.15144820
H        3.20495710       1.27368858       4.95107970
H       -4.08289514       4.14887224       3.88232443
O        0.42525053      -3.13471783       5.55773081
C        1.54239494      -3.44990560       5.17372738
C        2.07893754      -2.98773915       3.87814785
C        1.28846482      -2.20603632       3.03082559
C        1.79619474      -1.79619474       1.79619474
C        3.08407006      -2.18267466       1.39816368
O        3.57622959      -1.79493826       0.17558034
C        3.29977575      -2.80314520      -0.80711215
C        3.80061787      -2.38624908      -2.18641977
O        3.42942443      -2.92733077      -3.22395300
N        4.74604732      -1.40327720      -2.20813222
C        3.88745201      -2.91625743       2.28328044
Br       5.68888507      -3.35248225       1.86992152
C        3.38217267      -3.33482867       3.51679702
H        2.19700651      -4.10077189       5.77845565
H        0.28299272      -1.92161400       3.33786458
H        2.22012046      -2.97379255      -0.88913691
H        3.80395719      -3.74238903      -0.55271821
H        4.93461597      -0.85727703      -1.37657238
H        5.06214775      -1.06405516      -3.10639172
H        4.00385784      -3.91948616       4.19074781
C       -0.00445707       0.01189536      -1.78238275
H       -0.66409135       0.67374010      -2.43557963
H        0.65740317      -0.63156657      -2.45157240
C       -0.90989263      -0.90692880      -0.91072765
C        0.90977584       0.90977584      -0.90977584
C       -0.00465871       1.77757030       0.00794375
H       -0.66225468       2.44313916      -0.64384735
H        0.64322798       2.43503045       0.67728295
C       -1.78241447       0.00034974      -0.00472694
H       -2.45427497      -0.65498947       0.64260836
H       -2.43311707       0.67328779      -0.65473579
C       -0.91132561       0.90220522       0.91563759
C       -0.01476271      -0.02253852       1.78660255
H       -0.67934791      -0.69751639       2.42135241
H        0.63392994       0.61504881       2.47327442
C        0.01484550      -1.77751727      -0.01636693
H        0.67870853      -2.42144646      -0.68295456
H       -0.62264859      -2.45592969       0.64226336
C        1.78714474       0.01002794       0.00389507
H        2.44202412       0.67113390       0.66197326
H        2.45385902      -0.65136977      -0.64189061
C        0.91606151      -0.90478549       0.90901405
