82
Properties=species:S:1:pos:R:3 pbc="F F F"
O        5.37617757       0.28465029      -3.39455234
C        5.05512783       1.44083233      -3.64843691
C        3.80950305       2.03059718      -3.11715183
C        2.97618004       1.25191597      -2.30508991
C        1.79549143       1.79549143      -1.79549143
C        1.44261491       3.11545982      -2.09368256
O        0.27903204       3.62852475      -1.58265069
C        2.27782053       3.89224375      -2.90614800
Br       1.80266794       5.68799659      -3.31483591
C        3.46300259       3.35042394      -3.41917784
O        4.29384951       4.09352724      -4.21587697
H        5.68910868       2.08016307      -4.28450314
H        3.25262909       0.22417725      -2.07395305
H        0.18393243       4.54998684      -1.88319587
H        3.90491422       4.98238026      -4.32426074
O       -5.88738608      -0.94061212      -2.22738200
C       -5.41801543      -1.90647749      -2.81990415
C       -3.98811188      -2.25978075      -2.70935942
C       -3.14930125      -1.47406091      -1.90982376
C       -1.79549143      -1.79549143      -1.79549143
C       -1.27465385      -2.89994141      -2.47716203
O        0.05727109      -3.19699734      -2.35048121
C       -2.11572462      -3.68425252      -3.27623513
Br      -1.41256529      -5.18743497      -4.20550018
C       -3.47430365      -3.36492969      -3.39337103
O       -4.31396088      -4.11933694      -4.16995591
H       -6.05145993      -2.54511835      -3.45719661
H       -3.55669684      -0.61434500      -1.37971756
H        0.25443771      -3.98749204      -2.88406081
H       -3.79673161      -4.84356676      -4.57125685
O       -0.42705548       5.55933835       3.06898638
C       -1.54191778       5.18514338       3.41733591
C       -2.08035144       3.87349672       3.00340389
C       -1.30013875       3.03820392       2.19484325
C       -1.79549143       1.79549143       1.79549143
C       -3.06866932       1.38243322       2.20065475
O       -3.53483927       0.15853428       1.79683391
C       -3.84708584       2.21973866       3.00938777
Br      -5.57932526       1.66289547       3.56327971
C       -3.35356739       3.46704568       3.41199130
O       -4.09912600       4.30105061       4.20307711
H       -2.18110075       5.81893416       4.05373998
H       -0.30887965       3.36157285       1.88030690
H       -4.42786818       0.02686407       2.16238290
H       -4.95224232       3.86615096       4.39316194
O        0.68495009      -5.76731648       2.60311364
C        1.72498758      -5.33278017       3.08662933
C        2.17045607      -3.94616127       2.84063471
C        1.38747516      -3.10863695       2.03707381
C        1.79549143      -1.79549143       1.79549143
C        2.98393643      -1.31410143       2.35371943
O        3.36518117      -0.02171508       2.10331122
C        3.76531188      -2.15379349       3.15710691
Br       5.38252631      -1.50418836       3.91878578
C        3.35926884      -3.47164507       3.40169046
O        4.10927201      -4.30923396       4.18474775
H        2.36389986      -5.96635214       3.72352289
H        0.46227585      -3.48527879       1.60320476
H        4.20671933       0.15147939       2.56187520
H        4.89766645      -3.82213909       4.49174968
C       -0.00445707       0.01189536      -1.78238275
H       -0.66409135       0.67374010      -2.43557963
H        0.65740317      -0.63156657      -2.45157240
C       -0.90989263      -0.90692880      -0.91072765
C        0.90977584       0.90977584      -0.90977584
C       -0.00465871       1.77757030       0.00794375
H       -0.66225468       2.44313916      -0.64384735
H        0.64322798       2.43503045       0.67728295
C       -1.78241447       0.00034974      -0.00472694
H       -2.45427497      -0.65498947       0.64260836
H       -2.43311707       0.67328779      -0.65473579
C       -0.91132561       0.90220522       0.91563759
C       -0.01476271      -0.02253852       1.78660255
H       -0.67934791      -0.69751639       2.42135241
H        0.63392994       0.61504881       2.47327442
C        0.01484550      -1.77751727      -0.01636693
H        0.67870853      -2.42144646      -0.68295456
H       -0.62264859      -2.45592969       0.64226336
C        1.78714474       0.01002794       0.00389507
H        2.44202412       0.67113390       0.66197326
H        2.45385902      -0.65136977      -0.64189061
C        0.91606151      -0.90478549       0.90901405
