122
Properties=species:S:1:pos:R:3 pbc="F F F"
C        0.65470828       6.27907569       0.93037222
C       -0.15506502       5.00821539       0.71756608
C        0.26451004       4.26034574      -0.54642061
O        1.56913828       3.70276766      -0.33371770
C        2.06865863       3.13538629      -1.47854850
C        1.79672469       1.79672469      -1.79672469
C        2.37120001       1.20982829      -2.92720686
C        3.24964070       1.95043415      -3.72286762
C        3.88998821       1.32574120      -4.89766202
O        3.61464737       0.18766522      -5.25319543
C        3.55237537       3.27467813      -3.40246509
C        2.96458846       3.86163998      -2.27817645
H        0.31914351       6.79363941       1.83635531
H        0.53082938       6.96574623       0.08657346
H        1.72067906       6.05950296       1.04329760
H       -1.21657132       5.26953189       0.65103617
H       -0.02330584       4.35992013       1.59172685
H        0.26077787       4.94001224      -1.40759156
H       -0.45890703       3.45959538      -0.73381651
H        2.15917521       0.17191036      -3.17943034
H        4.63263959       1.93551798      -5.44023484
H        4.24898108       3.84407164      -4.01339851
C        3.32918654       5.21972508      -1.96789737
C        3.63453742       6.35712135      -1.70803864
Br       4.12826398       8.19619492      -1.28786905
C       -1.04501721       1.21783720      -6.17623174
C       -1.01898265       1.58225957      -4.69886121
C       -1.82853959       0.60549698      -3.84823378
O       -1.13771764      -0.65146171      -3.81644429
C       -1.87814234      -1.61886494      -3.18558613
C       -1.79672469      -1.79672469      -1.79672469
C       -2.49960783      -2.83263369      -1.17599363
C       -3.25733591      -3.71720005      -1.94840651
C       -3.97249499      -4.83689526      -1.30400118
O       -3.99161648      -4.97555531      -0.08833623
C       -3.32458865      -3.57023144      -3.33469850
C       -2.63059224      -2.52416677      -3.94964589
H       -0.46611630       1.94460170      -6.75491300
H       -2.07045569       1.22051791      -6.56006437
H       -0.61335265       0.22774474      -6.35127651
H       -1.42082132       2.59349243      -4.57459551
H        0.02355329       1.59154459      -4.35998534
H       -2.83863312       0.49101503      -4.26076358
H       -1.91218818       1.01251001      -2.83482670
H       -2.44181891      -2.97126148      -0.09743552
H       -4.48886176      -5.54612811      -1.97340253
H       -3.90131153      -4.26945932      -3.93568038
C       -2.70326402      -2.42889324      -5.38465173
C       -2.76412664      -2.34910165      -6.58646912
Br      -2.86253635      -2.22008541      -8.52970620
C       -6.36065005       0.13709288      -0.49433118
C       -4.94645505       0.23682407      -1.04769483
C       -4.10275436       1.26447768      -0.29595565
O       -3.83078528       0.75682564       1.01801273
C       -3.19517247       1.68929622       1.79812473
C       -1.79672469       1.79672469       1.79672469
C       -1.15797323       2.70023692       2.65002501
C       -1.91519872       3.47322080       3.53452296
C       -1.24492011       4.40282383       4.46564749
O       -0.03497556       4.58351199       4.43702047
C       -3.30557975       3.35629467       3.56764416
C       -3.94102767       2.46084827       2.70252896
H       -6.93818860      -0.59806725      -1.06369375
H       -6.87597238       1.10047312      -0.56644335
H       -6.35836275      -0.17568176       0.55420342
H       -4.99720429       0.51143426      -2.10671415
H       -4.47448892      -0.75028136      -0.97932011
H       -4.63044712       2.22506738      -0.24713283
H       -3.16478863       1.41173592      -0.84201968
H       -0.07263925       2.78908210       2.64879456
H       -1.88913089       4.92698043       5.19228108
H       -3.89173144       3.94656440       4.26815539
C       -5.37397287       2.35043511       2.79240102
C       -6.57406447       2.25796408       2.86766887
Br      -8.51451110       2.10844625       2.98937062
C       -2.05701328      -5.44522088       2.61520415
C       -2.14199765      -3.95395851       2.32362344
C       -0.86942541      -3.21244323       2.72825857
O        0.18347962      -3.59157275       1.83057127
C        1.39139412      -3.07088119       2.22031810
C        1.79672469      -1.79672469       1.79672469
C        3.05988388      -1.30802582       2.14032545
C        3.93631484      -2.10841170       2.87821593
C        5.28674591      -1.61371177       3.21293375
O        5.64562616      -0.47811287       2.93176899
C        3.55782128      -3.38966107       3.28203623
C        2.28800293      -3.86891280       2.94748917
H       -2.98868914      -5.94076876       2.32434799
H       -1.89837517      -5.62478716       3.68359015
H       -1.23880090      -5.91480615       2.06087916
H       -2.99643525      -3.53364427       2.86471538
H       -2.32414777      -3.81783737       1.25119785
H       -0.60736188      -3.44869557       3.76704798
H       -1.05511107      -2.13556602       2.65404992
H        3.37636497      -0.31766653       1.81648440
H        5.95975324      -2.32002634       3.72861281
H        4.24735275      -4.01722693       3.84187155
C        1.95131237      -5.20745011       3.35804651
C        1.66933402      -6.32847511       3.70188828
Br       1.21339889      -8.14107773       4.25785134
C       -0.00445707       0.01189536      -1.78238275
H       -0.66409135       0.67374010      -2.43557963
H        0.65740317      -0.63156657      -2.45157240
C       -0.90989263      -0.90692880      -0.91072765
C        0.90977584       0.90977584      -0.90977584
C       -0.00465871       1.77757030       0.00794375
H       -0.66225468       2.44313916      -0.64384735
H        0.64322798       2.43503045       0.67728295
C       -1.78241447       0.00034974      -0.00472694
H       -2.45427497      -0.65498947       0.64260836
H       -2.43311707       0.67328779      -0.65473579
C       -0.91132561       0.90220522       0.91563759
C       -0.01476271      -0.02253852       1.78660255
H       -0.67934791      -0.69751639       2.42135241
H        0.63392994       0.61504881       2.47327442
C        0.01484550      -1.77751727      -0.01636693
H        0.67870853      -2.42144646      -0.68295456
H       -0.62264859      -2.45592969       0.64226336
C        1.78714474       0.01002794       0.00389507
H        2.44202412       0.67113390       0.66197326
H        2.45385902      -0.65136977      -0.64189061
C        0.91606151      -0.90478549       0.90901405
