114
Properties=species:S:1:pos:R:3 pbc="F F F"
C        0.65470828       6.27907569       0.93037222
C       -0.15506502       5.00821539       0.71756608
C        0.26451004       4.26034574      -0.54642061
O        1.56913828       3.70276766      -0.33371770
C        2.06865863       3.13538629      -1.47854850
C        1.79672469       1.79672469      -1.79672469
C        2.37120001       1.20982829      -2.92720686
C        3.24964070       1.95043415      -3.72286762
C        3.88998821       1.32574120      -4.89766202
O        3.61464737       0.18766522      -5.25319543
C        3.55237537       3.27467813      -3.40246509
C        2.96458846       3.86163998      -2.27817645
Br       3.44540906       5.65264037      -1.86899005
H        0.31914351       6.79363941       1.83635531
H        0.53082938       6.96574623       0.08657346
H        1.72067906       6.05950296       1.04329760
H       -1.21657132       5.26953189       0.65103617
H       -0.02330584       4.35992013       1.59172685
H        0.26077787       4.94001224      -1.40759156
H       -0.45890703       3.45959538      -0.73381651
H        2.15917521       0.17191036      -3.17943034
H        4.63263959       1.93551798      -5.44023484
H        4.24898108       3.84407164      -4.01339851
C       -3.42630933       2.29339678      -4.87049920
C       -2.97457581       2.25666830      -3.41767678
C       -3.15677330       0.87594351      -2.79044659
O       -2.20480101      -0.02110997      -3.37971266
C       -2.40452709      -1.31337431      -2.96469202
C       -1.79672469      -1.79672469      -1.79672469
C       -1.94884444      -3.13491388      -1.42447683
C       -2.67961870      -4.00319440      -2.24012938
C       -2.81323278      -5.42719137      -1.87296728
O       -2.36696818      -5.86678207      -0.82175776
C       -3.26592934      -3.54333420      -3.42025505
C       -3.12235033      -2.20059194      -3.78146262
Br      -3.90736579      -1.64180787      -5.41786582
H       -3.29276449       3.29872972      -5.28239283
H       -4.48608696       2.03169945      -4.95561464
H       -2.84829983       1.59784163      -5.48642622
H       -3.54896247       2.99464173      -2.84760366
H       -1.91826714       2.54655823      -3.37317854
H       -4.18316086       0.52136729      -2.94658809
H       -2.97813335       0.95645939      -1.71283090
H       -1.48161020      -3.51264487      -0.51626084
H       -3.33467164      -6.07855260      -2.59516815
H       -3.82016973      -4.22428038      -4.06200112
C       -2.89252026      -2.15370042       5.26459190
C       -2.54803349      -2.19524904       3.78279984
C       -2.87768559      -0.88210483       3.07569562
O       -1.95720584       0.12157567       3.52684214
C       -2.28269902       1.36154061       3.03835378
C       -1.79672469       1.79672469       1.79672469
C       -2.07533227       3.08894669       1.34395619
C       -2.81053765       3.96290885       2.14949597
C       -3.07686705       5.34216497       1.69435940
O       -2.74005841       5.73130054       0.58414907
C       -3.27605640       3.55351835       3.39994384
C       -3.00637538       2.25533311       3.84269641
Br      -3.63000786       1.76807678       5.56895484
H       -2.65476303      -3.11315124       5.73481581
H       -3.96044208      -1.96141458       5.41097465
H       -2.32690335      -1.37469777       5.78467884
H       -3.10361944      -3.01272305       3.31102801
H       -1.47857781      -2.41275052       3.67906016
H       -3.91442655      -0.58972166       3.28367678
H       -2.76961451      -1.03109559       1.99598594
H       -1.70294500       3.42883434       0.37873656
H       -3.59402310       6.00800766       2.40636163
H       -3.83372696       4.24040243       4.03232185
C        2.15569926      -5.71011705      -1.86240457
C        1.06488898      -4.67959592      -1.60890061
C        1.08168558      -4.16166247      -0.17207166
O        2.25077633      -3.34933221       0.00551510
C        2.40457388      -2.96466110       1.31335844
C        1.79672469      -1.79672469       1.79672469
C        2.02078348      -1.37693958       3.11051209
C        2.88396595      -2.10509692       3.93387960
C        3.15521735      -1.64698422       5.31118986
O        2.58101155      -0.68031812       5.79417834
C        3.51864918      -3.25325803       3.45761138
C        3.28072936      -3.67680592       2.14686962
Br       4.20337082      -5.22226599       1.54140267
H        2.10556392      -6.06689377      -2.89603009
H        2.03643715      -6.57434078      -1.20077577
H        3.15136575      -5.28616056      -1.70064189
H        0.09077793      -5.13276852      -1.82162206
H        1.20541702      -3.84422918      -2.30475875
H        1.07316914      -5.00166749       0.53354503
H        0.18028489      -3.56164635      -0.00742638
H        1.54737897      -0.47280090       3.49033604
H        3.90444727      -2.21866099       5.88528414
H        4.20281362      -3.80915042       4.09448719
C       -0.00445707       0.01189536      -1.78238275
H       -0.66409135       0.67374010      -2.43557963
H        0.65740317      -0.63156657      -2.45157240
C       -0.90989263      -0.90692880      -0.91072765
C        0.90977584       0.90977584      -0.90977584
C       -0.00465871       1.77757030       0.00794375
H       -0.66225468       2.44313916      -0.64384735
H        0.64322798       2.43503045       0.67728295
C       -1.78241447       0.00034974      -0.00472694
H       -2.45427497      -0.65498947       0.64260836
H       -2.43311707       0.67328779      -0.65473579
C       -0.91132561       0.90220522       0.91563759
C       -0.01476271      -0.02253852       1.78660255
H       -0.67934791      -0.69751639       2.42135241
H        0.63392994       0.61504881       2.47327442
C        0.01484550      -1.77751727      -0.01636693
H        0.67870853      -2.42144646      -0.68295456
H       -0.62264859      -2.45592969       0.64226336
C        1.78714474       0.01002794       0.00389507
H        2.44202412       0.67113390       0.66197326
H        2.45385902      -0.65136977      -0.64189061
C        0.91606151      -0.90478549       0.90901405
