142
Properties=species:S:1:pos:R:3 pbc="F F F"
C        1.82380280       1.82380280      -1.82380280
C        1.87047033       3.29986532      -1.39602560
C        2.45074910       3.48370723       0.03143226
C        2.55322126       4.97672492       0.39316297
H        2.95837467       5.08304941       1.40559722
C        3.47947548       5.68143450      -0.61027963
C        2.91674336       5.54107668      -2.03292380
H        3.58221613       6.04259192      -2.74431873
C        2.80786523       4.04943436      -2.38795926
C        1.51921767       6.17756599      -2.09416139
C        0.59144663       5.46913421      -1.09672961
C        1.15365802       5.61262184       0.32616271
C        0.47581941       3.97842998      -1.46054384
H        1.42670947       1.71427573      -2.83828302
H        2.81865933       1.36729185      -1.79225224
H        3.44337929       3.01972052       0.09756563
H        1.82006085       2.98669318       0.77723229
H        3.57724671       6.74264905      -0.34884653
H        4.48577802       5.24759850      -0.56020785
H        2.43102167       3.94517975      -3.41383358
H        3.80852984       3.59764754      -2.37465741
H        1.12278805       6.10275578      -3.11564651
H        1.59079788       7.24935323      -1.86632033
H        0.49223309       5.12885991       1.05668500
H        1.21503239       6.67030791       0.61489116
H       -0.22399686       3.48841066      -0.77181762
H        0.05097620       3.86175561      -2.46691497
C       -0.71399376       6.07416479      -1.15472436
C       -1.80730008       6.58087790      -1.20329496
Br      -3.57508394       7.40019015      -1.28182951
C       -1.82380280      -1.82380280      -1.82380280
C       -2.16141179      -3.19322371      -1.21172576
C       -2.95249692      -3.06795500       0.11742785
C       -3.33836455      -4.45680946       0.65839080
H       -3.88936516      -4.34529985       1.59883815
C       -4.21902741      -5.17862599      -0.37353620
C       -3.45264197      -5.34326669      -1.69483518
H       -4.08590055      -5.85566871      -2.42755753
C       -3.06163970      -3.95557016      -2.22804900
C       -2.17836498      -6.16583386      -1.44674620
C       -1.29481046      -5.44153551      -0.42096447
C       -2.06121596      -5.27998727       0.90108608
C       -0.89616031      -4.05706579      -0.96156712
H       -1.27989868      -1.93140614      -2.76796340
H       -2.72874100      -1.23681044      -2.01265198
H       -3.85878652      -2.46848014      -0.03826752
H       -2.35865613      -2.54976839       0.87890278
H       -4.51827053      -6.16172127       0.01124951
H       -5.14127259      -4.60931663      -0.54299516
H       -2.53682086      -4.06737434      -3.18583980
H       -3.97051925      -3.37529537      -2.43502017
H       -1.63965167      -6.30840682      -2.39313184
H       -2.44909147      -7.16815546      -1.08922451
H       -1.43733280      -4.78136726       1.65429205
H       -2.32802564      -6.26026995       1.31784645
H       -0.22804700      -3.56417447      -0.24400995
H       -0.32509181      -4.16017682      -1.89437814
C       -0.10604901      -6.22027721      -0.18856917
C        0.88953871      -6.87247339       0.00606190
Br       2.49931984      -7.92701944       0.32076388
C       -1.82380280       1.82380280       1.82380280
C       -2.86177198       1.05075606       2.65383321
C       -2.20319572       0.05479037       3.64503798
C       -3.26883159      -0.64240945       4.51036108
H       -2.78332530      -1.34462767       5.19712923
C       -4.04308815       0.41397380       5.31412765
C       -4.73100307       1.40101866       4.35872212
H       -5.27894018       2.15335116       4.93683545
C       -3.66539107       2.08928373       3.49058406
C       -5.70556551       0.63605993       3.44931961
C       -4.93132459      -0.41484627       2.64083212
C       -4.24608942      -1.40325399       3.59728172
C       -3.87244073       0.27750347       1.76484903
H       -2.30516421       2.53231796       1.14178604
H       -1.13258951       2.37950895       2.46610496
H       -1.49075151       0.58253300       4.29224968
H       -1.63333728      -0.71219663       3.10838108
H       -4.79125744      -0.07399240       5.95147724
H       -3.35928518       0.95256437       5.98173483
H       -4.15038526       2.81498067       2.82466907
H       -2.98467743       2.66160452       4.13455284
H       -6.21915684       1.34058551       2.78144798
H       -6.48547466       0.16150849       4.05948829
H       -3.70331263      -2.17510133       3.03619670
H       -4.98967294      -1.92959532       4.21037151
H       -3.35449395      -0.47456775       1.15630521
H       -4.35227122       0.96877751       1.05859806
C       -5.85086428      -1.13181022       1.79584133
C       -6.62097877      -1.73226754       1.08816154
Br      -7.86618877      -2.70315623      -0.05609682
C        1.82380280      -1.82380280       1.82380280
C        2.72906201      -1.04502336       2.79227588
C        1.91789469      -0.18640480       3.79872458
C        2.85419263       0.51620356       4.79879414
H        2.26214811       1.12097173       5.49465048
C        3.64934159      -0.54083639       5.58101162
C        4.48622203      -1.39130272       4.61321910
H        5.04862913      -2.14483209       5.17566557
C        3.54942856      -2.08479957       3.61103073
C        5.46085653      -0.48277370       3.84731482
C        4.66652959       0.56921158       3.05999244
C        3.83212137       1.42114960       4.02914538
C        3.73735116      -0.12719183       2.05025024
H        2.41188470      -2.43553195       1.13185156
H        1.13382097      -2.48103370       2.36334874
H        1.20415050      -0.81785708       4.34352661
H        1.32936251       0.57662912       3.27678834
H        4.30457171      -0.05150763       6.31266294
H        2.96340447      -1.18257182       6.14760809
H        4.14130968      -2.71464800       2.93407733
H        2.87111657      -2.75788283       4.15183539
H        6.07956881      -1.08925703       3.17236449
H        6.15078624      -0.00214418       4.55354101
H        3.27195313       2.19306680       3.48552167
H        4.48148573       1.95025518       4.73921859
H        3.20707289       0.63084350       1.46000203
H        4.32433357      -0.71991691       1.33539631
C        5.58554164       1.42059879       2.34995254
C        6.35521424       2.13363559       1.75529412
Br       7.59970973       3.28655577       0.79378176
C       -0.00445707       0.01189536      -1.78238275
H       -0.66409135       0.67374010      -2.43557963
H        0.65740317      -0.63156657      -2.45157240
C       -0.90989263      -0.90692880      -0.91072765
C        0.90977584       0.90977584      -0.90977584
C       -0.00465871       1.77757030       0.00794375
H       -0.66225468       2.44313916      -0.64384735
H        0.64322798       2.43503045       0.67728295
C       -1.78241447       0.00034974      -0.00472694
H       -2.45427497      -0.65498947       0.64260836
H       -2.43311707       0.67328779      -0.65473579
C       -0.91132561       0.90220522       0.91563759
C       -0.01476271      -0.02253852       1.78660255
H       -0.67934791      -0.69751639       2.42135241
H        0.63392994       0.61504881       2.47327442
C        0.01484550      -1.77751727      -0.01636693
H        0.67870853      -2.42144646      -0.68295456
H       -0.62264859      -2.45592969       0.64226336
C        1.78714474       0.01002794       0.00389507
H        2.44202412       0.67113390       0.66197326
H        2.45385902      -0.65136977      -0.64189061
C        0.91606151      -0.90478549       0.90901405
