121
Properties=species:S:1:pos:R:3 pbc="F F F"
C        0.00000000       0.00000000       0.00000000
C        0.88174905       0.88174905      -0.88174905
C        0.74364003       2.26831240      -0.82847872
C        1.54674427       3.08064617      -1.63391118
C        2.47977118       2.49852753      -2.50601633
C        2.62353280       1.10484605      -2.53547768
C        1.82193113       0.29552918      -1.72679456
C        3.35020266       3.32004472      -3.39903483
O        4.45122454       2.87397839      -3.69665876
N        2.78892082       4.50145299      -3.82628335
C        3.37045663       5.43681602      -4.64578588
N        2.73314205       6.52224295      -5.02356628
N        3.50493879       7.31347718      -5.85096030
C        4.70890552       6.80842919      -6.05144277
S        4.95137028       5.30463251      -5.24917240
C        5.74476830       7.40934057      -6.90434661
C        5.36110357       8.26137461      -7.95446503
C        6.31608573       8.84745666      -8.79232534
C        7.66817957       8.59341839      -8.58049275
Br       8.96331358       9.38457773      -9.70619395
C        8.07343162       7.76211934      -7.54014450
C        7.11589707       7.17527545      -6.70660200
H        0.02117803       2.72612219      -0.15696030
H        1.44784617       4.15760640      -1.54383848
H        3.36022533       0.64326154      -3.19198184
H        1.94117631      -0.78467419      -1.76301577
H        1.83327354       4.72847902      -3.59548833
H        4.30643757       8.47003803      -8.13214625
H        5.99250222       9.49672424      -9.60161255
H        9.12750659       7.56412752      -7.36482871
H        7.46591707       6.54109700      -5.89468093
C       -0.88174905      -0.88174905      -0.88174905
C       -1.08074600      -0.54059421      -2.21909094
C       -1.88766135      -1.34277203      -3.03086825
C       -2.50850588      -2.48147725      -2.49433192
C       -2.28428722      -2.82518940      -1.15437992
C       -1.47448959      -2.02350553      -0.34625975
C       -3.39281474      -3.36264462      -3.31382285
O       -3.45193377      -4.55004127      -3.01988665
N       -4.08668773      -2.71800575      -4.31196368
C       -4.95941684      -3.28883264      -5.20480905
N       -5.59984702      -2.57543412      -6.10367015
N       -6.42912929      -3.35373617      -6.88651081
C       -6.36896898      -4.63376820      -6.56604030
S       -5.30084736      -4.95072311      -5.25360472
C       -7.15377395      -5.70107244      -7.20360910
C       -8.37509978      -5.38054789      -7.82129554
C       -9.15427581      -6.36854456      -8.43304737
C       -8.71261291      -7.68855902      -8.44091878
Br      -9.75837188      -9.02722356      -9.26848982
C       -7.50120289      -8.02882107      -7.84567150
C       -6.72647603      -7.03916296      -7.23213553
H       -0.60487027       0.34150597      -2.64089623
H       -1.99352097      -1.07783864      -4.07793143
H       -2.74285749      -3.71920667      -0.73340454
H       -1.31265056      -2.29976933       0.69290200
H       -4.03552193      -1.71479424      -4.40692473
H       -8.73350382      -4.35148401      -7.82363403
H      -10.09825346      -6.09534951      -8.89723603
H       -7.14697102      -9.05618267      -7.85330912
H       -5.77867970      -7.33556171      -6.78745360
C       -0.88174905       0.88174905       0.88174905
C       -0.29409196       1.84341098       1.70292821
C       -1.09554194       2.65257821       2.51318147
C       -2.48906001       2.48504522       2.51020982
C       -3.06922883       1.52924207       1.66538563
C       -2.26599034       0.72425434       0.85401018
C       -3.38879603       3.31190365       3.36858254
O       -4.52417753       3.53195482       2.96572935
N       -2.83794403       3.71560499       4.56310813
C       -3.44350753       4.48086089       5.52869011
N       -2.83877801       4.78507489       6.65509838
N       -3.63690025       5.55303456       7.47944147
C       -4.81061285       5.82182095       6.93634368
S       -5.01076778       5.11507231       5.37933510
C       -5.88136769       6.59594994       7.58113785
C       -5.93602746       6.65647526       8.98444050
C       -6.94297922       7.37700524       9.63588328
C       -7.90156346       8.05358838       8.88693887
Br      -9.26215313       9.03151215       9.76041998
C       -7.86182142       8.01789099       7.49598305
C       -6.85577060       7.29388234       6.84812158
H        0.78503436       1.97712374       1.71217115
H       -0.61665867       3.42038753       3.11224485
H       -4.15128695       1.40602387       1.63815788
H       -2.72931746      -0.01634874       0.20654916
H       -1.92112129       3.39715690       4.83896271
H       -5.19218555       6.13241753       9.58401878
H       -6.96687676       7.40179407      10.72216818
H       -8.60312150       8.54871844       6.90462288
H       -6.84493249       7.29666067       5.76010185
C        0.88174905      -0.88174905       0.88174905
C        2.22041508      -1.07660648       0.54340959
C        3.03220403      -1.88349814       1.34559945
C        2.49439861      -2.50847403       2.48144240
C        1.15305388      -2.28840780       2.82239485
C        0.34491371      -1.47862608       2.02071508
C        3.31389768      -3.39293487       3.36244966
O        3.01718327      -3.45571114       4.54896728
N        4.31533508      -4.08275149       2.71857059
C        5.20892429      -4.95468523       3.28944901
N        6.11111999      -5.59113416       2.57669714
N        6.89408656      -6.42040493       3.35488478
C        6.57031507      -6.36419682       4.63426560
S        5.25446780      -5.30009885       4.95060854
C        7.20718861      -7.15006248       5.70120439
C        7.82867823      -8.36906694       5.37919804
C        8.43991649      -9.14917140       6.36677985
C        8.44344396      -8.71075268       7.68789407
Br       9.27029454      -9.75777289       9.02601783
C        7.84436922      -7.50165743       8.02966881
C        7.23136191      -6.72600240       7.04041021
H        2.64321594      -0.59751513      -0.33647054
H        4.08017521      -1.98612242       1.08299341
H        0.73101080      -2.75022120       3.71423670
H       -0.69532230      -1.32003126       2.29480893
H        4.41264132      -4.02887373       1.71572585
H        7.83443796      -8.72492090       4.34926300
H        8.90710750     -10.09132455       6.09240696
H        7.84860005      -7.14994682       9.05791594
H        6.78361092      -5.78003985       7.33804424
