129
Properties=species:S:1:pos:R:3 pbc="F F F"
C        0.00000000       0.00000000       0.00000000
C        0.88174905       0.88174905      -0.88174905
C        0.74364003       2.26831240      -0.82847872
C        1.54674427       3.08064617      -1.63391118
C        2.47977118       2.49852753      -2.50601633
C        2.62353280       1.10484605      -2.53547768
C        1.82193113       0.29552918      -1.72679456
C        3.35020266       3.32004472      -3.39903483
O        4.45122454       2.87397839      -3.69665876
N        2.78892082       4.50145299      -3.82628335
C        3.37045663       5.43681602      -4.64578588
N        2.73314205       6.52224295      -5.02356628
N        3.50493879       7.31347718      -5.85096030
C        4.70890552       6.80842919      -6.05144277
S        4.95137028       5.30463251      -5.24917240
C        5.74476830       7.40934057      -6.90434661
C        5.36110357       8.26137461      -7.95446503
C        6.31608573       8.84745666      -8.79232534
C        7.66817957       8.59341839      -8.58049275
C        8.07343162       7.76211934      -7.54014450
C        7.11589707       7.17527545      -6.70660200
H        0.02117803       2.72612219      -0.15696030
H        1.44784617       4.15760640      -1.54383848
H        3.36022533       0.64326154      -3.19198184
H        1.94117631      -0.78467419      -1.76301577
H        1.83327354       4.72847902      -3.59548833
H        4.30643757       8.47003803      -8.13214625
H        5.99250222       9.49672424      -9.60161255
H        9.12750659       7.56412752      -7.36482871
H        7.46591707       6.54109700      -5.89468093
C        8.65516825       9.19634080      -9.43836099
C        9.48177127       9.70128831     -10.15682565
Br      10.81831844      10.51774573     -11.31852223
C       -0.88174905      -0.88174905      -0.88174905
C       -2.04192317      -0.35251232      -1.44599567
C       -2.85375297      -1.15474588      -2.25280277
C       -2.50777593      -2.49574945      -2.48078966
C       -1.32865167      -3.01019687      -1.92500799
C       -0.51730406      -2.20508673      -1.12186408
C       -3.34864078      -3.39960744      -3.32103400
O       -2.78978369      -4.30576321      -3.92631479
N       -4.69699770      -3.12675913      -3.29290033
C       -5.68404858      -3.79759490      -3.97141506
N       -6.95260054      -3.47666142      -3.84968933
N       -7.76697925      -4.28844436      -4.61395266
C       -7.08194729      -5.18145676      -5.30537343
S       -5.38498999      -5.09020214      -5.02998306
C       -7.67163747      -6.19793290      -6.18888510
C       -8.99197381      -6.62334379      -5.96162562
C       -9.58670863      -7.59327516      -6.77588395
C       -8.86707166      -8.14096431      -7.83405474
C       -7.56197695      -7.72765000      -8.08606850
C       -6.96944729      -6.76029227      -7.26803495
H       -2.31744761       0.68488009      -1.27169301
H       -3.72908949      -0.70750689      -2.71269466
H       -1.03854033      -4.04313983      -2.11378854
H        0.39257503      -2.61859743      -0.69349549
H       -5.06310179      -2.41139397      -2.68274514
H       -9.56791930      -6.20322298      -5.13747958
H      -10.60660854      -7.91002498      -6.57420549
H       -6.99614318      -8.14621249      -8.91410715
H       -5.95274215      -6.44942929      -7.49952357
C       -9.47557253      -9.13759079      -8.67670671
C       -9.98519201      -9.97226547      -9.38242774
Br     -10.80920361     -11.32186383     -10.52351895
C       -0.88174905       0.88174905       0.88174905
C       -2.26952339       0.78363681       0.78727095
C       -3.08191939       1.58879620       1.59058603
C       -2.49930478       2.50544229       2.47956798
C       -1.10353244       2.58014671       2.58017738
C       -0.29400821       1.77169641       1.77855024
C       -3.32154872       3.39987690       3.34785659
O       -2.85255464       3.74363969       4.42566736
N       -4.53131118       3.77507883       2.81026715
C       -5.47355824       4.58398095       3.39551933
N       -6.58816069       4.91027687       2.78051372
N       -7.38105948       5.73705075       3.55126604
C       -6.84717500       5.98860435       4.73299814
S       -5.31332709       5.23853539       4.95331271
C       -7.44293847       6.85444161       5.76107540
C       -8.33724647       7.86700359       5.37269315
C       -8.92011348       8.71579944       6.31995481
C       -8.62019368       8.55251542       7.66938160
C       -7.74626396       7.54975914       8.07967236
C       -7.16284134       6.70522243       7.12971076
H       -2.72782501       0.07741868       0.09901684
H       -4.15810127       1.46419082       1.52699895
H       -0.64058744       3.27190523       3.28297603
H        0.78764038       1.84320890       1.86394936
H       -4.77921288       3.50891450       1.86911351
H       -8.58206577       8.00649618       4.32005992
H       -9.60278598       9.49551529       5.99253774
H       -7.51219568       7.41229868       9.13196846
H       -6.49438868       5.92323174       7.48407460
C       -9.21955157       9.42177517       8.64854329
C       -9.72151381      10.14978021       9.46859120
Br     -10.53314428      11.32690278      10.79453932
C        0.88174905      -0.88174905       0.88174905
C        0.33472552      -2.00543098       1.50027465
C        1.13616975      -2.81564136       2.30949052
C        2.48606386      -2.48790454       2.51034665
C        3.02924718      -1.36773615       1.86687320
C        2.22672589      -0.56169992       1.05582906
C        3.38098538      -3.31043493       3.37786191
O        4.57464340      -3.34143023       3.10578806
N        2.75289757      -3.92996673       4.43379286
C        3.33761063      -4.74032441       5.37512349
N        2.65127456      -5.25920020       6.36847653
N        3.44235225      -6.03109909       7.19592493
C        4.69653252      -6.08705519       6.78518978
S        4.98159739      -5.16217166       5.36140614
C        5.77771875      -6.80950745       7.47122928
C        5.67595086      -7.04826039       8.85273196
C        6.68647108      -7.72626910       9.54312756
C        7.80680511      -8.18149579       8.85378981
C        7.92510075      -7.96707567       7.48351904
C        6.91458996      -7.28601128       6.79717329
H       -0.71090217      -2.26405954       1.35110317
H        0.69647615      -3.70645833       2.74635657
H        4.08124477      -1.11671810       1.99750583
H        2.66034556       0.30692270       0.56609503
H        1.77616953      -3.75984712       4.62122424
H        4.80457469      -6.69839034       9.40565683
H        6.58665034      -7.89151434      10.61267433
H        8.79391204      -8.32499236       6.93755841
H        7.03111283      -7.14614994       5.72443224
C        8.84838756      -8.88223032       9.55925216
C        9.72071285      -9.46909549      10.15007688
Br      11.13118908     -10.41800683      11.10539048
