142
Properties=species:S:1:pos:R:3 pbc="F F F"
C        1.79165308       1.79165308      -1.79165308
C        1.65354405       3.17821642      -1.73838275
C        2.45664830       3.99055019      -2.54381521
C        3.38967521       3.40843155      -3.41592036
C        3.53343683       2.01475008      -3.44538170
C        2.73183515       1.20543320      -2.63669858
C        4.26010669       4.22994875      -4.30893886
O        5.36112857       3.78388241      -4.60656278
N        3.69882484       5.41135701      -4.73618737
C        4.28036066       6.34672004      -5.55568990
N        3.64304608       7.43214698      -5.93347031
N        4.41484281       8.22338121      -6.76086432
C        5.61880955       7.71833321      -6.96134680
S        5.86127430       6.21453653      -6.15907643
C        6.65467232       8.31924460      -7.81425063
C        6.27100760       9.17127864      -8.86436906
C        7.22598976       9.75736069      -9.70222936
C        8.57808359       9.50332242      -9.49039678
Br       9.87321760      10.29448176     -10.61609797
C        8.98333564       8.67202337      -8.45004852
C        8.02580109       8.08517948      -7.61650603
H        0.93108206       3.63602622      -1.06686433
H        2.35775019       5.06751043      -2.45374250
H        4.27012935       1.55316556      -4.10188586
H        2.85108033       0.12522984      -2.67291979
H        2.74317756       5.63838304      -4.50539236
H        5.21634160       9.37994205      -9.04205028
H        6.90240624      10.40662827     -10.51151657
H       10.03741061       8.47403155      -8.27473273
H        8.37582110       7.45100103      -6.80458496
C       -1.79165308      -1.79165308      -1.79165308
C       -2.65873419      -1.20111379      -2.71029525
C       -3.46921447      -2.00260379      -3.51919543
C       -3.41997257      -3.39972657      -3.39432797
C       -2.52966734      -3.98189133      -2.48200993
C       -1.71824596      -3.17845680      -1.67726418
C       -4.27616370      -4.30035646      -4.22247412
O       -3.84682742      -5.41594897      -4.48879738
N       -5.49818008      -3.77444125      -4.57374790
C       -6.46829989      -4.38624763      -5.32822309
N       -7.62082312      -3.80736892      -5.58047132
N       -8.44422427      -4.60718064      -6.34768343
C       -7.87512093      -5.75535996      -6.66800866
S       -6.29208293      -5.92881143      -6.01399290
C       -8.51126758      -6.82191001      -7.45498996
C       -9.91353456      -6.91745712      -7.47566361
C      -10.55657705      -7.92204757      -8.20695519
C       -9.80058424      -8.83697646      -8.93424208
Br     -10.66285331     -10.19404174      -9.92690227
C       -8.41096813      -8.75597601      -8.93846339
C       -7.77137120      -7.75249750      -8.20361790
H       -2.70392318      -0.11928986      -2.81075956
H       -4.10526400      -1.51970535      -4.25403377
H       -2.46674262      -5.06578680      -2.39265135
H       -1.03513031      -3.64353575      -0.97056390
H       -5.79117887      -2.87625133      -4.21952277
H      -10.51859481      -6.20802319      -6.91171593
H      -11.64193257      -7.97826411      -8.20035440
H       -7.81439980      -9.46292058      -9.50885450
H       -6.68473587      -7.70846132      -8.23820989
C       -1.79165308       1.79165308       1.79165308
C       -1.48470962       3.14357536       1.94185824
C       -2.28703564       3.95548493       2.74849313
C       -3.39098413       3.40502631       3.41801667
C       -3.70113155       2.04967473       3.24276233
C       -2.89949048       1.24131950       2.43315695
C       -4.27023245       4.22466308       4.30409875
O       -5.44619764       3.89854115       4.40683498
N       -3.63575822       5.26108476       4.94952625
C       -4.20743947       6.16260585       5.81272528
N       -3.50285969       7.10022800       6.40557567
N       -4.27982840       7.88457625       7.23468369
C       -5.55099762       7.52573895       7.22175299
S       -5.85952563       6.17363051       6.20173112
C       -6.61369519       8.15529932       8.01917304
C       -6.27659120       8.81789723       9.21216685
C       -7.25944563       9.42377937      10.00235481
C       -8.59128276       9.38054133       9.59997869
Br      -9.92322816      10.19986494      10.66070423
C       -8.94848716       8.74008908       8.41683129
C       -7.96379172       8.13260407       7.63109081
H       -0.62957116       3.57631040       1.42809105
H       -2.05032406       5.01242047       2.81625859
H       -4.56869983       1.61691267       3.73956827
H       -3.14936892       0.19029271       2.30956833
H       -2.63769255       5.38333396       4.86592646
H       -5.23815609       8.86049041       9.53968744
H       -6.97306567       9.92342499      10.92406042
H       -9.98539709       8.70763621       8.09314158
H       -8.27404384       7.65166719       6.70569605
C        1.79165308      -1.79165308       1.79165308
C        2.65531312      -1.20123815       2.71359196
C        3.46577659      -2.00272462       3.52251249
C        3.41998468      -3.39966854       3.39437390
C        2.53306734      -3.98177585       2.47872541
C        1.72164897      -3.17835640       1.67396156
C        4.27633999      -4.30023462       4.22241968
O        3.84893257      -5.41739628       4.48524492
N        5.49636330      -3.77235439       4.57765155
C        6.46615857      -4.38367373       5.33293830
N        7.61679301      -3.80276296       5.58910738
N        8.44026778      -4.60244743       6.35637314
C        7.87304576      -5.75263428       6.67280951
S        6.29188840      -5.92818286       6.01481601
C        8.50982696      -6.81952408       7.45881652
C        9.91225659      -6.91194579       7.48245290
C       10.55591911      -7.91673445       8.21292624
C        9.80035930      -8.83501739       8.93642609
Br      10.66345515     -10.19237574       9.92796645
C        8.41055713      -8.75717008       8.93768031
C        7.77035072      -7.75347750       8.20365837
H        2.69782212      -0.11954531       2.81660517
H        4.09906600      -1.52005587       4.25988125
H        2.47280228      -5.06560551       2.38677299
H        1.04118965      -3.64337600       0.96466432
H        5.78812559      -2.87270331       4.22612407
H       10.51698104      -6.19986844       6.92148445
H       11.64141144      -7.97048079       8.20865886
H        7.81430436      -9.46675348       9.50511705
H        6.68354289      -7.71197782       8.23588637
C       -0.00445707       0.01189536      -1.78238275
H       -0.66409135       0.67374010      -2.43557963
H        0.65740317      -0.63156657      -2.45157240
C       -0.90989263      -0.90692880      -0.91072765
C        0.90977584       0.90977584      -0.90977584
C       -0.00465871       1.77757030       0.00794375
H       -0.66225468       2.44313916      -0.64384735
H        0.64322798       2.43503045       0.67728295
C       -1.78241447       0.00034974      -0.00472694
H       -2.45427497      -0.65498947       0.64260836
H       -2.43311707       0.67328779      -0.65473579
C       -0.91132561       0.90220522       0.91563759
C       -0.01476271      -0.02253852       1.78660255
H       -0.67934791      -0.69751639       2.42135241
H        0.63392994       0.61504881       2.47327442
C        0.01484550      -1.77751727      -0.01636693
H        0.67870853      -2.42144646      -0.68295456
H       -0.62264859      -2.45592969       0.64226336
C        1.78714474       0.01002794       0.00389507
H        2.44202412       0.67113390       0.66197326
H        2.45385902      -0.65136977      -0.64189061
C        0.91606151      -0.90478549       0.90901405
