138
Properties=species:S:1:pos:R:3 pbc="F F F"
C        1.79143949       1.79143949      -1.79143949
C        3.06464282       2.15442309      -1.35234526
C        3.87623609       2.95967752      -2.15767469
C        3.41434396       3.39202539      -3.40935981
C        2.12491347       3.03725372      -3.83069100
C        1.31532944       2.23306293      -3.02434305
C        4.24603534       4.24278579      -4.31241292
O        3.67035959       5.04039868      -5.04284428
N        5.59753298       3.99667099      -4.24572893
C        6.58924840       4.61804578      -4.96137904
S        6.30809570       5.92484836      -6.00971276
C        7.98334986       5.97658590      -6.40173926
C        8.66363236       6.82957760      -7.28660177
C       10.04293720       6.65481541      -7.42620190
C       10.72721002       5.67562645      -6.71276819
C       10.03549263       4.83633306      -5.83257309
C        8.64237092       4.98355940      -5.67370679
N        7.83375420       4.22064351      -4.84840241
H        3.42924846       1.82349604      -0.38248136
H        4.84958368       3.25966658      -1.77854387
H        1.74856908       3.38477699      -4.79185417
H        0.31957595       1.96183243      -3.36632471
H        5.94975276       3.23198217      -3.68965994
H        8.12778561       7.59274490      -7.84202987
H       11.80071501       5.55064580      -6.83145290
H       10.56061597       4.06866039      -5.27282772
C       10.77015954       7.50710033      -8.33083337
C       11.37920824       8.22088894      -9.08846222
Br      12.36398849       9.37502477     -10.31348400
C       -1.79143949      -1.79143949      -1.79143949
C       -3.12682446      -1.99869178      -1.44589493
C       -3.93835812      -2.80340172      -2.25182845
C       -3.41264854      -3.39173677      -3.41134385
C       -2.06350155      -3.19234527      -3.73701137
C       -1.25415040      -2.38841804      -2.93016698
C       -4.23994870      -4.24914537      -4.31213998
O       -3.68161728      -5.15986227      -4.91212300
N       -5.56245516      -3.88111286      -4.39636487
C       -6.54286546      -4.47925185      -5.14655591
S       -6.29750151      -5.89959154      -6.04556378
C       -7.92954863      -5.84250276      -6.58962364
C       -8.60850350      -6.71356526      -7.45774296
C       -9.94743908      -6.43354736      -7.74296807
C      -10.59465686      -5.33494532      -7.18600248
C       -9.90526345      -4.47890684      -6.32022848
C       -8.55167646      -4.73098390      -6.01697675
N       -7.74887184      -3.96609340      -5.18783488
H       -3.54121151      -1.54628052      -0.54773382
H       -4.96516979      -2.98000288      -1.94262145
H       -1.63981449      -3.66140534      -4.62398041
H       -0.21109695      -2.23874057      -3.19789557
H       -5.88716819      -3.03912512      -3.94510155
H       -8.10161153      -7.56996358      -7.89098528
H      -11.63692219      -5.12890966      -7.41698185
H      -10.40146771      -3.61856225      -5.88207413
C      -10.67115293      -7.30170991      -8.63523039
C      -11.27726328      -8.02879605      -9.38250008
Br     -12.25729245      -9.20443285     -10.59077196
C       -1.79143949       1.79143949       1.79143949
C       -1.21838179       2.51761819       2.83541119
C       -2.02177446       3.32812344       3.64369039
C       -3.39951356       3.41872006       3.39749554
C       -3.96683015       2.66816002       2.35786802
C       -3.16250126       1.85849528       1.55173888
C       -4.29907986       4.27893372       4.22322047
O       -5.45813425       3.91448519       4.38098311
N       -3.71579896       5.43339074       4.69074320
C       -4.30235528       6.40475817       5.46155977
S       -5.87837142       6.28093447       6.08335093
C       -5.71741559       7.83189015       6.81236928
C       -6.64903318       8.55812180       7.57265675
C       -6.26132230       9.81297895       8.04965326
C       -4.99600244      10.33003623       7.78956598
C       -4.07828011       9.59248480       7.03363387
C       -4.44109548       8.32535379       6.53318784
N       -3.64072191       7.49484672       5.76723149
H       -0.15076900       2.45170304       3.03275381
H       -1.55874895       3.85556361       4.47348156
H       -5.03882607       2.71519906       2.17117511
H       -3.61559037       1.28603579       0.74610693
H       -2.78382137       5.68784658       4.39972692
H       -7.63547166       8.15275523       7.77433350
H       -4.70781023      11.30816002       8.16684345
H       -3.08937781       9.98832104       6.82440524
C       -7.19462002      10.58754535       8.82592786
C       -7.97625687      11.23624471       9.47605783
Br      -9.24009753      12.28513671      10.52726302
C        1.79143949      -1.79143949       1.79143949
C        1.21056969      -2.56289944       2.79794204
C        2.01403003      -3.37353898       3.60601928
C        3.40011990      -3.41864692       3.39696233
C        3.97443383      -2.62310940       2.39531497
C        3.17000222      -1.81339735       1.58933584
C        4.30061516      -4.27677688       4.22384201
O        5.44391199      -3.88486338       4.42482718
N        3.73784969      -5.45994607       4.64213713
C        4.33029770      -6.43628429       5.40209122
S        5.88419465      -6.28648457       6.07197760
C        5.74749292      -7.86156624       6.75261587
C        6.67799824      -8.58305423       7.51875925
C        6.31325875      -9.86136897       7.94932679
C        5.07100194     -10.40579745       7.63880527
C        4.15393526      -9.67273653       6.87772699
C        4.49410051      -8.38217928       6.42335732
N        3.69190542      -7.55268212       5.65821258
H        0.13642589      -2.53241820       2.96638177
H        1.54337595      -3.93722009       4.40719808
H        5.05212003      -2.63491260       2.23816761
H        3.62876557      -1.20570156       0.81326595
H        2.82200832      -5.73181460       4.31757194
H        7.64642206      -8.15631988       7.75981845
H        4.80055166     -11.40197218       7.98028987
H        3.18298688     -10.08980046       6.62931675
C        7.24638220     -10.63156429       8.73014674
C        8.02787308     -11.27660287       9.38408346
Br       9.29147775     -12.31957570      10.44144381
C       -0.00445707       0.01189536      -1.78238275
H       -0.66409135       0.67374010      -2.43557963
H        0.65740317      -0.63156657      -2.45157240
C       -0.90989263      -0.90692880      -0.91072765
C        0.90977584       0.90977584      -0.90977584
C       -0.00465871       1.77757030       0.00794375
H       -0.66225468       2.44313916      -0.64384735
H        0.64322798       2.43503045       0.67728295
C       -1.78241447       0.00034974      -0.00472694
H       -2.45427497      -0.65498947       0.64260836
H       -2.43311707       0.67328779      -0.65473579
C       -0.91132561       0.90220522       0.91563759
C       -0.01476271      -0.02253852       1.78660255
H       -0.67934791      -0.69751639       2.42135241
H        0.63392994       0.61504881       2.47327442
C        0.01484550      -1.77751727      -0.01636693
H        0.67870853      -2.42144646      -0.68295456
H       -0.62264859      -2.45592969       0.64226336
C        1.78714474       0.01002794       0.00389507
H        2.44202412       0.67113390       0.66197326
H        2.45385902      -0.65136977      -0.64189061
C        0.91606151      -0.90478549       0.90901405
