109
Properties=species:S:1:pos:R:3 pbc="F F F"
C        0.00000000       0.00000000       0.00000000
C        0.88153546       0.88153546      -0.88153546
C        2.15473880       1.24451906      -0.44244124
C        2.96633206       2.04977350      -1.24777066
C        2.50443993       2.48212137      -2.49945578
C        1.21500945       2.12734970      -2.92078697
C        0.40542541       1.32315890      -2.11443903
C        3.33613132       3.33288177      -3.40250890
O        2.76045557       4.13049466      -4.13294026
N        4.68762895       3.08676696      -3.33582491
C        5.67934438       3.70814176      -4.05147501
S        5.39819167       5.01494434      -5.09980874
C        7.07344584       5.06668187      -5.49183524
C        7.75372833       5.91967358      -6.37669774
C        9.13303318       5.74491138      -6.51629787
Br      10.08903023       6.86531409      -7.70551467
C        9.81730600       4.76572243      -5.80286416
C        9.12558861       3.92642903      -4.92266907
C        7.73246690       4.07365538      -4.76380277
N        6.92385018       3.31073949      -3.93849838
H        2.51934443       0.91359201       0.52742266
H        3.93967965       2.34976255      -0.86863985
H        0.83866506       2.47487297      -3.88195014
H       -0.59032808       1.05192840      -2.45642069
H        5.03984873       2.32207815      -2.77975591
H        7.21788159       6.68284088      -6.93212585
H       10.89081099       4.64074177      -5.92154888
H        9.65071195       3.15875637      -4.36292370
C       -0.88153546      -0.88153546      -0.88153546
C       -2.15941696      -0.44784535      -1.23443679
C       -2.96916891      -1.25104774      -2.04365957
C       -2.49230597      -2.48543887      -2.50827225
C       -1.21379926      -2.91938899      -2.12995787
C       -0.40647482      -2.11565129      -1.32089724
C       -3.31215123      -3.37480757      -3.38456319
O       -3.15224977      -4.58553332      -3.28610740
N       -4.14643324      -2.71064612      -4.25314146
C       -5.00081415      -3.26765007      -5.17049693
S       -5.26027389      -4.94048879      -5.31218207
C       -6.35763985      -4.66495006      -6.60937304
C       -7.07686429      -5.59479753      -7.37843783
C       -7.90676526      -5.09973697      -8.38774021
Br      -8.88709530      -6.31706276      -9.45570094
C       -8.02637616      -3.73401677      -8.62549965
C       -7.30590864      -2.82061007      -7.84816800
C       -6.45552190      -3.28870068      -6.82570246
N       -5.68065404      -2.50238233      -5.99005167
H       -2.53621725       0.50793151      -0.87722804
H       -3.97436739      -0.90871044      -2.27500422
H       -0.84175412      -3.88551857      -2.46821548
H        0.58465003      -2.46297986      -1.03969118
H       -4.10952725      -1.70506659      -4.32708895
H       -6.98203665      -6.65968235      -7.19112931
H       -8.67577711      -3.36278472      -9.41453980
H       -7.39173247      -1.75339443      -8.02726511
C       -0.88153546       0.88153546       0.88153546
C       -0.42452564       2.13795953       1.27921393
C       -1.22972798       2.94955172       2.08459652
C       -2.49900132       2.50478534       2.48223042
C       -2.93874862       1.23161286       2.09278465
C       -2.13250966       0.42198691       1.28852677
C       -3.40241520       3.33755416       3.33155262
O       -4.16040051       2.76106752       4.10242244
N       -3.30363485       4.69206665       3.11451932
C       -4.01182313       5.68555852       3.74157951
S       -5.09209207       5.39977032       5.02108236
C       -5.45143699       7.08131896       5.09920699
C       -6.33974823       7.76232419       5.94802722
C       -6.44806948       9.14742169       5.79875126
Br      -7.64055343      10.10489372       6.91441185
C       -5.70118411       9.83644806       4.84826042
C       -4.81804775       9.14383353       4.01280543
C       -4.69018195       7.74508269       4.13466040
N       -3.86581920       6.93520860       3.37206025
H        0.55901755       2.48921087       0.97532046
H       -0.83737881       3.90873221       2.41197103
H       -3.91416941       0.86811694       2.41320182
H       -2.48876225      -0.56092659       0.99018535
H       -2.72509281       5.04809550       2.36849449
H       -6.92129917       7.22276109       6.68878806
H       -5.79574626      10.91444549       4.74290989
H       -4.23230411       9.67267963       3.26740828
C        0.88153546      -0.88153546       0.88153546
C        0.57934112      -1.02687969       2.23547830
C        1.38270241      -1.83526299       3.04591082
C        2.48371608      -2.50714389       2.49515712
C        2.78899195      -2.33687353       1.13728064
C        1.98539892      -1.52830305       0.32932137
C        3.36558506      -3.39158220       3.31435473
O        4.54869331      -3.46954276       3.00565442
N        2.72001191      -4.06576825       4.32444066
C        3.27428127      -4.94370138       5.22097850
S        4.93935642      -5.27002669       5.30356164
C        4.66158970      -6.38658167       6.58379158
C        5.58257318      -7.18214932       7.28537716
C        5.08690010      -8.01732568       8.29001665
Br       6.29064389      -9.11463380       9.25458130
C        3.72998163      -8.06112977       8.59478119
C        2.82597653      -7.25968882       7.88902136
C        3.29393962      -6.41040033       6.86558509
N        2.51474461      -5.57418113       6.08416231
H       -0.27247350      -0.50828137       2.66970591
H        1.14910885      -1.90388122       4.10509198
H        3.65378631      -2.83760108       0.70410078
H        2.23143200      -1.40960876      -0.72301975
H        1.71630684      -4.01271803       4.41265793
H        6.64061249      -7.14628019       7.04595563
H        3.35811259      -8.71601697       9.37897208
H        1.76541553      -7.28819802       8.11877846
