198
Properties=species:S:1:pos:R:3 pbc="F F F"
O       10.98666641       6.29180166      -9.28771348
C        9.94924049       6.40371920      -8.63677076
C        8.79015828       7.24732670      -9.15614745
S        7.49997714       6.23577479      -9.95699140
C        6.63214114       5.64141135      -8.57979570
N        6.99015261       5.93148596      -7.38074971
C        6.30396771       5.38654888      -6.32423925
N        6.87572129       5.65952740      -5.10052477
C        5.20806720       4.60327001      -6.49371799
N        4.40705342       3.99144684      -5.53696122
C        4.28604822       4.28964661      -4.19839786
O        4.80351163       5.24970542      -3.63395022
C        3.40429125       3.39979995      -3.40087425
C        2.70777455       3.95691545      -2.31900997
C        1.89540906       3.15371822      -1.51801179
C        1.79150671       1.79150671      -1.79150671
C        2.49484056       1.22461032      -2.85570891
C        3.30557505       2.02799968      -3.66293522
C        4.82924677       4.28810069      -7.91063059
O        3.87798885       3.54499893      -8.15542954
N        5.58522920       4.84864466      -8.88743831
H        5.36184857       4.65201774      -9.85216709
N        9.70406280       5.79699476      -7.41763923
C       10.58690019       4.95037159      -6.72555389
C       10.03058982       3.93947996      -5.93311066
C       10.85428221       3.02970484      -5.26719310
C       12.23760522       3.16634256      -5.35012454
Br      13.35613776       1.93201394      -4.45846183
C       12.80042435       4.20396899      -6.09045584
C       11.97366099       5.08872635      -6.78929683
H        9.19503357       7.93040035      -9.91121222
H        8.38183805       7.87368669      -8.35710620
H        6.19787487       5.60232606      -4.33114630
H        7.31877674       6.57285218      -5.10355039
H        3.72048697       3.35360813      -5.93776727
H        2.80060360       5.01840131      -2.09534466
H        1.35903677       3.59866243      -0.68296884
H        2.42734296       0.15778503      -3.05436989
H        3.87630983       1.56361486      -4.46291004
H        8.72866424       5.76388529      -7.11936454
H        8.95216993       3.81819995      -5.86295102
H       10.40678054       2.21982099      -4.69797323
H       13.87829232       4.33211644      -6.13869762
H       12.42896652       5.89592651      -7.35677064
O      -10.75607377      -6.19006822      -9.62003957
C       -9.77712783      -6.32471104      -8.88789158
C       -8.65067027      -7.28234803      -9.26061413
S       -7.23699362      -6.42422631     -10.03152340
C       -6.42452006      -5.79073683      -8.63809131
N       -6.88482534      -5.96584543      -7.45171751
C       -6.23462702      -5.39275754      -6.38737127
N       -6.90801192      -5.53429799      -5.19346355
C       -5.07465875      -4.70158769      -6.52880877
N       -4.29839138      -4.07725954      -5.55981056
C       -4.29235629      -4.28313682      -4.19859957
O       -4.91717220      -5.16079905      -3.60919603
C       -3.40419416      -3.39956994      -3.40120137
C       -2.82708190      -3.92171434      -2.23490373
C       -2.01461187      -3.11931193      -1.43321526
C       -1.79150671      -1.79150671      -1.79150671
C       -2.37589419      -1.25785366      -2.94141195
C       -3.18632651      -2.06102090      -3.74916254
C       -4.57677562      -4.51908250      -7.93211992
O       -3.55849155      -3.86349182      -8.15643395
N       -5.30306292      -5.09698346      -8.92126578
H       -4.99976942      -4.98820982      -9.87805417
N       -9.57230713      -5.64771139      -7.69867827
C      -10.43561845      -4.69332458      -7.13388264
C       -9.86191833      -3.66727762      -6.37398450
C      -10.65990745      -2.65607762      -5.83519507
C      -12.04053548      -2.70280611      -6.01073073
Br     -13.12337590      -1.33167661      -5.29156103
C      -12.62628291      -3.75114269      -6.71742358
C      -11.82111642      -4.74010325      -7.29046449
H       -9.05201081      -7.98992901      -9.99470632
H       -8.34590943      -7.87446244      -8.39225906
H       -6.28243918      -5.46713327      -4.38177478
H       -7.41622565      -6.41262148      -5.16633218
H       -3.54048303      -3.51970086      -5.95167847
H       -3.01346439      -4.95479057      -1.94609461
H       -1.57150203      -3.53710156      -0.53206445
H       -2.21604124      -0.21586755      -3.20758910
H       -3.66459995      -1.61892473      -4.61931004
H       -8.62002091      -5.65991426      -7.33197890
H       -8.78488599      -3.61575747      -6.23267744
H      -10.19395783      -1.83903882      -5.29157811
H      -13.70478552      -3.80790985      -6.83641101
H      -12.29475146      -5.55380491      -7.83310729
O       -6.51505905      11.26763159       8.78349091
C       -6.55501924      10.13964871       8.29506250
C       -7.86399867       9.56622822       7.76340554
S       -8.00903601       9.73159261       5.95211471
C       -7.04409548       8.39739242       5.41186029
N       -6.43661188       7.62584397       6.23993242
C       -5.63723543       6.61945196       5.75806845
N       -4.93259662       5.96089274       6.74228410
C       -5.51638347       6.35720311       4.43146863
N       -4.76377496       5.37901367       3.79267285
C       -4.23718912       4.22003147       4.31687209
O       -4.44610813       3.79219973       5.44885942
C       -3.39896036       3.40323464       3.40277046
C       -3.40329313       2.01105139       3.56935544
C       -2.60439145       1.20409177       2.75865585
C       -1.79150671       1.79150671       1.79150671
C       -1.76732401       3.17783541       1.63000038
C       -2.57056293       3.98838057       2.43756645
C       -6.24018148       7.28590329       3.50189327
O       -6.14594747       7.15123307       2.28123679
N       -6.98139231       8.26925151       4.07066834
H       -7.47617410       8.91599558       3.47386372
N       -5.46990143       9.29242208       8.15637328
C       -4.14765333       9.57669453       8.53847781
C       -3.11627365       8.99460035       7.79230645
C       -1.78206338       9.28414918       8.08496759
C       -1.47879687      10.11386111       9.16141434
Br       0.32476163      10.51602867       9.55534649
C       -2.49718996      10.65247543       9.94518380
C       -3.83325196      10.39367037       9.62476183
H       -8.68050903      10.13903107       8.21710604
H       -7.99140269       8.52998140       8.09124684
H       -4.66006121       5.01205249       6.45923354
H       -5.46487740       5.92441157       7.60589035
H       -4.75241268       5.48085586       2.77859382
H       -4.02663701       1.55248712       4.33522543
H       -2.61837562       0.12536447       2.89692795
H       -1.11703579       3.63454178       0.88792031
H       -2.51032977       5.06773252       2.32477244
H       -5.58956221       8.50928196       7.51306990
H       -3.33854101       8.34852828       6.94625161
H       -0.99494843       8.86530175       7.46432458
H       -2.26730013      11.27976030      10.80204596
H       -4.61479929      10.81669231      10.25017206
O        7.45731048     -11.60007386       7.50879722
C        7.25898756     -10.39936834       7.33137454
C        8.41266262      -9.40347473       7.37749508
S        9.01643575      -8.96343936       5.71286822
C        7.83930015      -7.78889030       5.22515774
N        6.84916046      -7.47312482       5.98010299
C        5.91245334      -6.58075130       5.52155120
N        4.83143699      -6.43989719       6.36443928
C        6.02682550      -5.95728464       4.32094507
N        5.17826797      -5.03167754       3.72551597
C        4.21346419      -4.24595340       4.31467509
O        4.01235974      -4.15229643       5.52251110
C        3.39939843      -3.40407993       3.40148710
C        2.93516613      -2.17002775       3.87850609
C        2.13650597      -1.36005012       3.07058297
C        1.79150671      -1.79150671       1.79150671
C        2.23444328      -3.02631578       1.31440074
C        3.03893650      -3.83763123       2.11994221
C        7.19626128      -6.35981207       3.47190470
O        7.35006676      -5.88059654       2.34775403
N        8.05208973      -7.27120276       3.99801968
H        8.84623850      -7.56926751       3.45052739
N        6.02840456      -9.82585381       7.06443841
C        4.80782964     -10.51188034       6.94311569
C        3.84916008      -9.98305446       6.07096591
C        2.63986366     -10.64910874       5.86220775
C        2.36719298     -11.81701270       6.56986664
Br       0.73620086     -12.72678118       6.28363149
C        3.29176481     -12.32033117       7.48275319
C        4.51867941     -11.67364521       7.65935954
H        9.23786294      -9.88315130       7.91563189
H        8.13454469      -8.51912765       7.95895860
H        4.35258986      -5.54013854       6.23861884
H        5.11153823      -6.54968701       7.33395407
H        5.43375607      -4.81526910       2.76283720
H        3.19161197      -1.83916414       4.88357346
H        1.78447576      -0.40423009       3.45196219
H        1.94706225      -3.36903980       0.32339584
H        3.34259631      -4.81258800       1.74765041
H        6.04587213      -8.87707395       6.68896798
H        4.05049442      -9.07442654       5.50839993
H        1.92791386     -10.25314978       5.14351112
H        3.07509951     -13.21672415       8.05728273
H        5.22567829     -12.07621479       8.37977059
C       -0.00445707       0.01189536      -1.78238275
H       -0.66409135       0.67374010      -2.43557963
H        0.65740317      -0.63156657      -2.45157240
C       -0.90989263      -0.90692880      -0.91072765
C        0.90977584       0.90977584      -0.90977584
C       -0.00465871       1.77757030       0.00794375
H       -0.66225468       2.44313916      -0.64384735
H        0.64322798       2.43503045       0.67728295
C       -1.78241447       0.00034974      -0.00472694
H       -2.45427497      -0.65498947       0.64260836
H       -2.43311707       0.67328779      -0.65473579
C       -0.91132561       0.90220522       0.91563759
C       -0.01476271      -0.02253852       1.78660255
H       -0.67934791      -0.69751639       2.42135241
H        0.63392994       0.61504881       2.47327442
C        0.01484550      -1.77751727      -0.01636693
H        0.67870853      -2.42144646      -0.68295456
H       -0.62264859      -2.45592969       0.64226336
C        1.78714474       0.01002794       0.00389507
H        2.44202412       0.67113390       0.66197326
H        2.45385902      -0.65136977      -0.64189061
C        0.91606151      -0.90478549       0.90901405
