142
Properties=species:S:1:pos:R:3 pbc="F F F"
C        1.79134188       1.79134188      -1.79134188
C        1.20441292       2.63615057      -2.72974630
C        2.01186720       3.44644104      -3.53323225
C        3.41051993       3.42125800      -3.40492371
C        3.98201693       2.56009178      -2.45537316
C        3.17664864       1.74731991      -1.65075677
C        4.26438894       4.26804075      -4.22665388
N        5.57545360       4.41026929      -4.23878672
N        5.85458047       5.35431605      -5.20913574
C        4.69671790       5.71297968      -5.71786331
N        4.49615741       6.63825307      -6.70056742
C        3.25296033       6.92438071      -7.21234038
O        2.19755953       6.37004961      -6.92361110
C        3.22945048       7.99787163      -8.24669565
C        2.26276854       7.92604701      -9.25949172
C        2.20781214       8.90725255     -10.25070088
C        3.11229245       9.96860052     -10.23028027
C        4.06031050      10.04991087      -9.21117397
Br       5.27300969      11.50038590      -9.17474063
C        4.12329982       9.07594780      -8.21419670
O        3.64374016       5.07217574      -5.14250464
H        0.12438387       2.67611058      -2.84586562
H        1.53494618       4.10183170      -4.26168977
H        5.06390147       2.51783342      -2.33479552
H        3.64003700       1.08877300      -0.92066992
H        5.33872855       7.05492046      -7.06538164
H        1.54965373       7.10293487      -9.27844269
H        1.45771587       8.84491079     -11.03586929
H        3.06356975      10.72962330     -11.00543041
H        4.84497020       9.18340743      -7.41003842
C       -1.79134188      -1.79134188      -1.79134188
C       -1.20347337      -2.65513025      -2.71170618
C       -2.01101269      -3.46537031      -3.51515749
C       -3.41072470      -3.42118587      -3.40479108
C       -3.98309632      -2.54109407      -2.47329149
C       -3.17762547      -1.72833283      -1.66876703
C       -4.26490409      -4.26756510      -4.22661439
N       -5.57740329      -4.39362317      -4.25348315
N       -5.85630723      -5.34626827      -5.21545676
C       -4.69681628      -5.72567671      -5.70506789
N       -4.49571800      -6.66567106      -6.67358884
C       -3.24995482      -6.97365421      -7.16607239
O       -2.19133014      -6.42889699      -6.87099310
C       -3.22710330      -8.06029182      -8.18662263
C       -2.24707598      -8.01324858      -9.18798271
C       -2.19215742      -9.00746304     -10.16614511
C       -3.11011231     -10.05714202     -10.14391890
C       -4.07167655     -10.11382212      -9.13589667
Br      -5.30290024     -11.54853344      -9.09670254
C       -4.13478967      -9.12667649      -8.15197816
O       -3.64308937      -5.09082143      -5.12450974
H       -0.12267274      -2.70997433      -2.81371300
H       -1.53336048      -4.13575933      -4.22934785
H       -5.06577864      -2.48387280      -2.36687898
H       -3.64172766      -1.05493580      -0.95281646
H       -5.33886717      -7.07639020      -7.04377328
H       -1.52347427      -7.19937031      -9.20818671
H       -1.43163142      -8.96434247     -10.94252206
H       -3.06134073     -10.82841052     -10.90887221
H       -4.86769837      -9.21502222      -7.35569547
C       -1.79134188       1.79134188       1.79134188
C       -3.17288461       1.61818469       1.77924050
C       -3.97900473       2.42242402       2.59011174
C       -3.41252791       3.40378984       3.42038390
C       -2.01822791       3.56429056       3.41496341
C       -1.20914922       2.76176936       2.60380674
C       -4.23824328       4.24141788       4.27942241
N       -3.90209828       5.18370127       5.13871006
N       -5.08256020       5.64508212       5.69038995
C       -6.04787320       4.95488949       5.12479819
N       -7.38309743       5.07036276       5.38151770
C       -8.33663624       4.34167730       4.71136788
O       -8.14448706       3.56548490       3.78124828
C       -9.73837778       4.57121798       5.16442200
C      -10.77031160       4.45543061       4.22256506
C      -12.09673036       4.66660132       4.60243388
C      -12.39925109       4.98609678       5.92582537
C      -11.37415103       5.08117585       6.86606846
Br     -11.78882811       5.49537167       8.66393644
C      -10.04497565       4.87032969       6.49813898
O       -5.59041287       4.04325253       4.22475514
H       -3.63491314       0.86353100       1.14791593
H       -5.05816489       2.27218965       2.56811312
H       -1.55092991       4.31850926       4.04709125
H       -0.13135813       2.90195965       2.61616214
H       -7.62212297       5.77598866       6.06091902
H      -10.54182799       4.20071880       3.18848450
H      -12.89311211       4.57850059       3.86688327
H      -13.43477725       5.14899052       6.21485570
H       -9.26968279       4.91148044       7.25725283
C        1.79134188      -1.79134188       1.79134188
C        3.17631372      -1.65930409       1.73469199
C        3.98262728      -2.46340927       2.54550393
C        3.41300855      -3.40357277       3.42012032
C        2.01513646      -3.52309010       3.45925532
C        1.20580933      -2.72062276       2.64829324
C        4.23936358      -4.24023885       4.27948115
N        3.90185276      -5.14729743       5.17535942
N        5.08436557      -5.62724529       5.70642141
C        6.05195086      -4.98217794       5.09343208
N        7.39030326      -5.12948641       5.31518823
C        8.34414907      -4.44859925       4.59693310
O        8.14698216      -3.69397950       3.65025857
C        9.75147805      -4.70622666       5.01631305
C       10.75815400      -4.64778955       4.04236373
C       12.08859609      -4.88693804       4.39023144
C       12.42065345      -5.17725602       5.71326376
C       11.42134964      -5.21524931       6.68479639
Br      11.87671706      -5.58993194       8.48148723
C       10.08849508      -4.97600297       6.34894628
O        5.59444961      -4.08356611       4.18040482
H        3.64094610      -0.93690719       1.06850678
H        5.06452490      -2.34566537       2.48827739
H        1.54527508      -4.24487448       4.12638086
H        0.12528298      -2.82864677       2.69555018
H        7.62894992      -5.82213978       6.00794095
H       10.50672882      -4.41611326       3.00818921
H       12.86519410      -4.84334366       3.62995819
H       13.45915530      -5.36220860       5.97725956
H        9.33500239      -4.97263387       7.13077980
C       -0.00445707       0.01189536      -1.78238275
H       -0.66409135       0.67374010      -2.43557963
H        0.65740317      -0.63156657      -2.45157240
C       -0.90989263      -0.90692880      -0.91072765
C        0.90977584       0.90977584      -0.90977584
C       -0.00465871       1.77757030       0.00794375
H       -0.66225468       2.44313916      -0.64384735
H        0.64322798       2.43503045       0.67728295
C       -1.78241447       0.00034974      -0.00472694
H       -2.45427497      -0.65498947       0.64260836
H       -2.43311707       0.67328779      -0.65473579
C       -0.91132561       0.90220522       0.91563759
C       -0.01476271      -0.02253852       1.78660255
H       -0.67934791      -0.69751639       2.42135241
H        0.63392994       0.61504881       2.47327442
C        0.01484550      -1.77751727      -0.01636693
H        0.67870853      -2.42144646      -0.68295456
H       -0.62264859      -2.45592969       0.64226336
C        1.78714474       0.01002794       0.00389507
H        2.44202412       0.67113390       0.66197326
H        2.45385902      -0.65136977      -0.64189061
C        0.91606151      -0.90478549       0.90901405
