129
Properties=species:S:1:pos:R:3 pbc="F F F"
C        0.00000000       0.00000000       0.00000000
C        0.88143785       0.88143785      -0.88143785
C        0.29450890       1.72624655      -1.81984228
C        1.10196318       2.53653701      -2.62332823
C        2.50061591       2.51135398      -2.49501969
C        3.07211291       1.65018776      -1.54546914
C        2.26674462       0.83741589      -0.74085275
C        3.35448492       3.35813673      -3.31674986
N        4.66554958       3.50036526      -3.32888270
N        4.94467645       4.44441202      -4.29923172
C        3.78681387       4.80307565      -4.80795929
N        3.58625338       5.72834905      -5.79066339
C        2.34305630       6.01447669      -6.30243635
O        1.28765550       5.46014558      -6.01370707
C        2.31954646       7.08796761      -7.33679162
C        1.35286452       7.01614298      -8.34958770
C        1.29790811       7.99734852      -9.34079686
C        2.20238843       9.05869649      -9.32037624
C        3.15040647       9.14000684      -8.30126995
C        3.21339580       8.16604378      -7.30429268
O        2.73383614       4.16227171      -4.23260062
H       -0.78552016       1.76620656      -1.93596160
H        0.62504215       3.19192768      -3.35178575
H        4.15399745       1.60792940      -1.42489150
H        2.73013298       0.17886898      -0.01076589
H        4.42882452       6.14501643      -6.15547762
H        0.63974971       6.19303085      -8.36853867
H        0.54781185       7.93500677     -10.12596527
H        2.15366573       9.81971928     -10.09552639
H        3.93506618       8.27350341      -6.50013440
C        4.07388386      10.24455190      -8.27352575
C        4.84729618      11.16960838      -8.25028998
Br       6.09783847      12.66534647      -8.21271972
C       -0.88143785      -0.88143785      -0.88143785
C       -0.74739188      -2.26630172      -0.82690412
C       -1.55807311      -3.07296885      -1.63078645
C       -2.50969091      -2.50396597      -2.49333269
C       -2.62625497      -1.10593509      -2.53557974
C       -1.81566518      -0.29617126      -1.73317682
C       -3.36951430      -3.33156607      -3.32829113
N       -4.32875045      -2.99686061      -4.16918647
N       -4.82392407      -4.18019205      -4.68420407
C       -4.12879056      -5.14508549      -4.12397276
N       -4.28973927      -6.48417127      -4.33135528
C       -3.48840643      -7.43154123      -3.74002168
O       -2.51389250      -7.22255155      -3.02506411
C       -3.84884372      -8.84439786      -4.05106410
C       -2.82320299      -9.79907139      -4.09632082
C       -3.11524509     -11.13235735      -4.38845105
C       -4.43332835     -11.51967327      -4.62845955
C       -5.45508771     -10.57326237      -4.56333319
C       -5.17514783      -9.23821989      -4.27036453
O       -3.19335775      -4.68560453      -3.24974618
H       -0.02065342      -2.73070068      -0.16529391
H       -1.43963978      -4.15482940      -1.57428640
H       -3.35416443      -0.63640304      -3.19625088
H       -1.92356524       0.78436176      -1.78056437
H       -5.00559290      -6.72406531      -4.99966037
H       -1.79222879      -9.50467138      -3.90441906
H       -2.31519875     -11.86828416      -4.42530098
H       -4.65367685     -12.56007821      -4.85515634
H       -5.99300169      -8.52888086      -4.18682144
C       -6.81718928     -10.97792106      -4.79685117
C       -7.95794935     -11.31682272      -4.99242247
Br      -9.80246190     -11.86479803      -5.30864474
C       -0.88143785       0.88143785       0.88143785
C       -1.76588084       0.29307075       1.78164613
C       -2.56926943       1.10077547       2.59178352
C       -2.49463822       2.50122244       2.51112891
C       -1.59907680       3.07396749       1.59472551
C       -0.79472765       2.26829358       0.78199202
C       -3.31666902       3.35598959       3.35671289
N       -3.37292792       4.67017370       3.45169592
N       -4.31823988       4.94925466       4.42082565
C       -4.76974090       3.78802344       4.84008448
N       -5.71003497       3.58691792       5.80831293
C       -6.16399703       2.33763089       6.15834142
O       -5.85606502       1.27328939       5.63215375
C       -7.15715816       2.31703585       7.27011168
C       -8.13482755       1.31227255       7.27149510
C       -9.08706308       1.25836733       8.29062308
C       -9.06222010       2.20226057       9.31698049
C       -8.07720360       3.18897076       9.32550890
C       -7.11924744       3.25137927       8.31310554
O       -4.17879508       2.73323658       4.21667680
H       -1.83978435      -0.78818996       1.86505361
H       -3.25505202       0.62275166       3.29095190
H       -1.52087410       4.15715629       1.50878795
H       -0.10692349       2.73274355       0.08010081
H       -6.09093405       4.43078693       6.20759760
H       -8.15676559       0.56849472       6.47605892
H       -9.84521543       0.47849908       8.28506938
H       -9.80690431       2.15413072      10.10787636
H       -6.33942742       4.00524499       8.36403158
C       -8.04419604       4.15372476      10.39404071
C       -8.01655221       4.96170622      11.28893611
Br      -7.97185447       6.26814392      12.73590627
C        0.88143785      -0.88143785       0.88143785
C        1.89303473      -1.64400805       0.30355495
C        2.70280328      -2.44723943       1.11178571
C        2.51052758      -2.49392942       2.50253257
C        1.48310818      -1.72025607       3.06440555
C        0.67052730      -0.91643305       2.25805291
C        3.35348652      -3.31685968       3.35902530
N        3.35300696      -3.47325942       4.66853116
N        4.37241958      -4.36217868       4.95372193
C        4.91395829      -4.68397595       3.79991457
N        5.96841268      -5.52863125       3.60822189
C        6.44802035      -5.85089958       2.36104942
O        5.98045267      -5.49750998       1.28354551
C        7.63578841      -6.75201701       2.35650026
C        7.79332902      -7.64115114       1.28411503
C        8.88820112      -8.50588177       1.24197060
C        9.83466734      -8.48084280       2.26595103
C        9.68774124      -7.58217788       3.32176414
C        8.59843938      -6.71195004       3.37334282
O        4.32586451      -4.05748109       2.74536287
H        2.06382511      -1.62254005      -0.76971716
H        3.48998452      -3.03664856       0.64212251
H        1.30930529      -1.73780121       4.13971184
H       -0.11849793      -0.32410886       2.71415692
H        6.33253726      -5.94607352       4.45070780
H        7.06095664      -7.66222040       0.47814217
H        9.00383725      -9.19582157       0.40912507
H       10.68528825      -9.15706718       2.22655596
H        8.52808531      -5.99491267       4.18570601
C       10.67387054      -7.54754212       4.37054885
C       11.49975383      -7.51853466       5.24890604
Br      12.83513727      -7.47163206       6.66913533
