121
Properties=species:S:1:pos:R:3 pbc="F F F"
C        0.00000000       0.00000000       0.00000000
C        0.88143785       0.88143785      -0.88143785
C        0.29450890       1.72624655      -1.81984228
C        1.10196318       2.53653701      -2.62332823
C        2.50061591       2.51135398      -2.49501969
C        3.07211291       1.65018776      -1.54546914
C        2.26674462       0.83741589      -0.74085275
C        3.35448492       3.35813673      -3.31674986
N        4.66554958       3.50036526      -3.32888270
N        4.94467645       4.44441202      -4.29923172
C        3.78681387       4.80307565      -4.80795929
N        3.58625338       5.72834905      -5.79066339
C        2.34305630       6.01447669      -6.30243635
O        1.28765550       5.46014558      -6.01370707
C        2.31954646       7.08796761      -7.33679162
C        1.35286452       7.01614298      -8.34958770
C        1.29790811       7.99734852      -9.34079686
C        2.20238843       9.05869649      -9.32037624
C        3.15040647       9.14000684      -8.30126995
Br       4.36310567      10.59048188      -8.26483661
C        3.21339580       8.16604378      -7.30429268
O        2.73383614       4.16227171      -4.23260062
H       -0.78552016       1.76620656      -1.93596160
H        0.62504215       3.19192768      -3.35178575
H        4.15399745       1.60792940      -1.42489150
H        2.73013298       0.17886898      -0.01076589
H        4.42882452       6.14501643      -6.15547762
H        0.63974971       6.19303085      -8.36853867
H        0.54781185       7.93500677     -10.12596527
H        2.15366573       9.81971928     -10.09552639
H        3.93506618       8.27350341      -6.50013440
C       -0.88143785      -0.88143785      -0.88143785
C       -0.48424337      -2.18386464      -1.17248971
C       -1.29410557      -2.99197041      -1.97575244
C       -2.50699160      -2.50725202      -2.49274594
C       -2.88709886      -1.19050331      -2.19016763
C       -2.07823783      -0.37918579      -1.38758963
C       -3.36707001      -3.34089546      -3.32140603
N       -4.53884741      -3.08579338      -3.87015674
N       -4.91107984      -4.23477366      -4.54246669
C       -3.93938321      -5.10067707      -4.35778853
N       -3.89271881      -6.37864442      -4.83390260
C       -2.81565439      -7.20915760      -4.63515735
O       -1.75896398      -6.91795408      -4.08459010
C       -2.96974490      -8.58425486      -5.19030593
C       -1.82334164      -9.25223968      -5.64301388
C       -1.92248150     -10.53909615      -6.17447584
C       -3.16521663     -11.16764733      -6.24859721
C       -4.30181347     -10.51034614      -5.77952366
Br      -5.98280696     -11.37237684      -5.86324035
C       -4.21436911      -9.22474855      -5.24461458
O       -2.92983425      -4.60864035      -3.59023386
H        0.44821991      -2.58310196      -0.78176595
H       -0.96751653      -4.00885313      -2.19238592
H       -3.82141615      -0.78680485      -2.57859735
H       -2.39242260       0.63716135      -1.16450660
H       -4.68582932      -6.64856406      -5.39492520
H       -0.84875982      -8.76954305      -5.58301635
H       -1.03021404     -11.05149657      -6.52707328
H       -3.23508360     -12.17032226      -6.66350553
H       -5.10799143      -8.75049528      -4.85021728
C       -0.88143785       0.88143785       0.88143785
C       -2.26106463       0.69329661       0.88623648
C       -3.06711313       1.49758787       1.69712742
C       -2.50244422       2.49397233       2.51057302
C       -1.11011258       2.66940523       2.48825200
C       -0.30112762       1.86686066       1.67702498
C       -3.32793050       3.33196161       3.36947939
N       -2.99282876       4.28710440       4.21486437
N       -4.17223433       4.74172684       4.77435902
C       -5.13601201       4.03506825       4.22676856
N       -6.46957277       4.13894770       4.49674535
C       -7.42228434       3.39278969       3.84489532
O       -7.23172378       2.60863482       2.92114955
C       -8.82148235       3.61214371       4.31067962
C       -9.86217454       3.47501121       3.38140944
C      -11.18664656       3.67601185       3.77339508
C      -11.47836209       4.00661485       5.09648422
C      -10.44429488       4.12295034       6.02443804
Br     -10.84407634       4.55219867       7.82214914
C       -9.11694157       3.92243383       5.64435685
O       -4.67837365       3.11866814       3.33166668
H       -2.72162294      -0.07311284       0.26813790
H       -4.14474875       1.33551428       1.68849255
H       -0.64427203       3.43544522       3.10710109
H        0.77514459       2.01877166       1.67614078
H       -6.70893530       4.84931128       5.17107200
H       -9.64207796       3.21153564       2.34770562
H      -11.98989463       3.57134363       3.04754563
H      -12.51242811       4.16148716       5.39499612
H       -8.33401532       3.98018696       6.39450171
C        0.88143785      -0.88143785       0.88143785
C        1.99645256      -0.33375718       1.51038798
C        2.80041481      -1.14029226       2.32112134
C        2.49665244      -2.49848046       2.51185667
C        1.37028207      -3.03145572       1.86603201
C        0.56459613      -2.22711669       1.05330043
C        3.31795330      -3.34864815       3.36277005
N        3.18687690      -4.62001440       3.68790623
N        4.23955682      -4.91492058       4.53384278
C        4.93443247      -3.80589387       4.65752247
N        6.05630493      -3.63389001       5.41507088
C        6.75445263      -2.45054015       5.45497657
O        6.52332018      -1.44208498       4.79610299
C        7.92613229      -2.44129253       6.37688086
C        9.03075060      -1.64549265       6.04235195
C       10.15081862      -1.61070646       6.87452841
C       10.16950216      -2.36373647       8.04822254
C        9.06236502      -3.13912875       8.39018949
Br       9.08244054      -4.14405789       9.99192572
C        7.93666581      -3.18007792       7.56698852
O        4.40922056      -2.76970624       3.94978167
H        2.25067356       0.71514979       1.38112423
H        3.66856456      -0.69427517       2.80591585
H        1.11112453      -4.08183497       1.99385885
H       -0.30391832      -2.66000659       0.56367958
H        6.36901664      -4.46136126       5.89894067
H        9.02077057      -1.05048786       5.13006079
H       11.00630660      -0.99392787       6.60854942
H       11.04523949      -2.33167642       8.69199548
H        7.07250650      -3.76061757       7.87557991
