133
Properties=species:S:1:pos:R:3 pbc="F F F"
C        0.00000000       0.00000000       0.00000000
C        0.86714157       0.86714157      -0.86714157
C        0.61997399       2.18358139      -1.18028944
C        1.70104889       2.60711987      -1.99238134
C        2.53884279       1.51794550      -2.13926846
O        2.01791135       0.44749677      -1.45682538
C        3.78516449       1.35503696      -2.86763132
O        4.40077315       2.30859713      -3.33268334
N        4.13489974       0.02605501      -3.00976496
C        5.21972019      -0.51988780      -3.71843767
C        6.30520033       0.21794436      -4.18328796
C        7.32935867      -0.41938443      -4.88829275
C        7.26095112      -1.79011945      -5.15084773
C        6.16823139      -2.53993356      -4.70750680
C        5.17142209      -1.89877371      -3.96747311
N        6.12322274      -3.90552569      -5.05464250
C        5.07392687      -4.79072835      -4.86450404
O        4.00593056      -4.52225674      -4.32406194
C        5.33274880      -6.11247362      -5.40282701
C        4.50745143      -7.21666560      -5.50620376
C        5.27247152      -8.24233875      -6.10949937
C        6.51943179      -7.70627760      -6.33492676
Br       7.95437616      -8.61815797      -7.10174507
O        6.56641755      -6.41127810      -5.91935299
H       -0.23080865       2.76947915      -0.86151737
H        1.85646081       3.58162191      -2.43633840
H        3.45444674      -0.63174039      -2.64145943
H        6.39049690       1.28469560      -3.99892087
H        8.17831918       0.16078458      -5.24264535
H        8.06300583      -2.25198837      -5.72104608
H        4.32167210      -2.45645307      -3.59007301
H        6.91437468      -4.28003136      -5.56772711
H        3.47544519      -7.25840361      -5.18193428
H        4.95049426      -9.24707739      -6.34577588
C       -0.86714157      -0.86714157      -0.86714157
C       -1.38132420      -0.51041733      -2.09210330
C       -2.10941438      -1.63308197      -2.55805376
C       -2.00855519      -2.60584071      -1.58166086
O       -1.25488847      -2.12816919      -0.53917583
C       -2.55594102      -3.94916059      -1.50273117
O       -3.06882932      -4.50459086      -2.46863344
N       -2.47588028      -4.46944918      -0.22539026
C       -2.97152238      -5.69650901       0.24976133
C       -3.39968304      -6.73970024      -0.56704937
C       -3.88660921      -7.91738744       0.00572965
C       -3.96884588      -8.04739847       1.39456495
C       -3.56109333      -7.00139085       2.22667954
C       -3.03698544      -5.84545197       1.64231592
N       -3.72447025      -7.16517902       3.61730971
C       -3.54250914      -6.21191819       4.60672477
O       -3.17311312      -5.05681433       4.42219168
C       -3.86396137      -6.69513603       5.93599521
C       -3.91487518      -6.02758052       7.14546612
C       -4.28019115      -6.98255482       8.12311383
C       -4.42659579      -8.17630340       7.45481824
Br      -4.88888980      -9.79890574       8.24983229
O       -4.18616736      -8.01361030       6.12528521
H       -1.24699041       0.43872052      -2.59191797
H       -2.65876307      -1.73043472      -3.48522332
H       -2.10557987      -3.82825664       0.46967073
H       -3.35153350      -6.67274537      -1.64983449
H       -4.21283262      -8.73166900      -0.63724750
H       -4.37297141      -8.96771383       1.80862171
H       -2.69120155      -5.02463854       2.26054804
H       -4.08543065      -8.05676660       3.94012681
H       -3.71222905      -4.97360058       7.28685377
H       -4.41572257      -6.81629344       9.18282327
C       -0.86714157       0.86714157       0.86714157
C       -0.92665805       0.81669874       2.24048804
C       -1.84634974       1.82011925       2.63408111
C       -2.30581947       2.41553033       1.47470695
O       -1.71151386       1.82007634       0.39064330
C       -3.26313821       3.48652199       1.25817258
O       -3.68103825       4.18596837       2.17504699
N       -3.66645664       3.56512984      -0.06086677
C       -4.63377727       4.41310500      -0.62861221
C       -5.16901883       5.53029318       0.00712063
C       -6.13573602       6.30339760      -0.64086662
C       -6.58702908       5.94981911      -1.91516879
C       -6.07320683       4.82016361      -2.55756580
C       -5.07679816       4.07965494      -1.91633162
N       -6.61013061       4.47738663      -3.81517768
C       -6.37078706       3.32700546      -4.55008996
O       -5.61218512       2.41975943      -4.22420878
C       -7.14161956       3.25831192      -5.77682929
C       -7.26120589       2.24147743      -6.70569374
C       -8.14142263       2.70820112      -7.70999161
C       -8.50380458       3.98234443      -7.33806807
Br      -9.64642099       5.09573350      -8.30419124
O       -7.91146755       4.32472275      -6.16169785
H       -0.37435848       0.14405869       2.88177070
H       -2.15758329       2.07934125       3.63749657
H       -3.28589553       2.84128609      -0.66301584
H       -4.84298707       5.83357830       0.99754800
H       -6.54492954       7.17911799      -0.14229841
H       -7.35600839       6.55923016      -2.38317501
H       -4.64164466       3.21072807      -2.39708068
H       -7.30835449       5.10064253      -4.20692659
H       -6.76634697       1.28039047      -6.64776158
H       -8.46578921       2.17820172      -8.59479817
C        0.86714157      -0.86714157       0.86714157
C        0.86737696      -2.24268621       0.87378165
C        1.85044772      -2.63392916       1.81617322
C        2.38341467      -1.47182968       2.34081241
O        1.76912938      -0.38850688       1.76459724
C        3.40910542      -1.25276003       3.34596733
O        4.12733769      -2.15849796       3.75621796
N        3.42194549       0.05180016       3.80057438
C        4.21106208       0.61293770       4.82014568
C        5.33128473      -0.00110372       5.37404420
C        6.04257409       0.63741213       6.39310503
C        5.62378798       1.87945129       6.87734270
C        4.49006643       2.49886209       6.34460030
C        3.81216607       1.86943837       5.29739379
N        4.07953752       3.72134191       6.91414395
C        2.91139901       4.42181396       6.65811751
O        2.04606716       4.09197518       5.85364379
C        2.76708879       5.61461930       7.47063270
C        1.71155804       6.49990977       7.58534130
C        2.10640505       7.48620987       8.51943696
C        3.37961521       7.14806033       8.91652606
Br       4.41195742       8.11009447      10.13610030
O        3.78867381       6.00882241       8.29464105
H        0.24080597      -2.88672290       0.27265899
H        2.13636074      -3.63828352       2.09977686
H        2.69007037       0.64092232       3.41501772
H        5.68429504      -0.96635184       5.02346648
H        6.92106604       0.15624576       6.81692883
H        6.18586007       2.33978527       7.68598874
H        2.94210439       2.33406080       4.84724846
H        4.66098699       4.10876076       7.64984419
H        0.77239265       6.42550248       7.05208569
H        1.53112686       8.33765711       8.85572300
