197
Properties=species:S:1:pos:R:3 pbc="F F F"
C        0.00000000       0.00000000       0.00000000
C        0.88174994       0.88174994      -0.88174994
C        0.40188618       2.11004438      -1.33424156
C        1.21215580       2.91581429      -2.13924234
C        2.49769658       2.48954913      -2.50110730
C        2.97625497       1.26007661      -2.02585398
C        2.16563809       0.45495680      -1.21976597
C        3.33378272       3.38458701      -3.35009835
O        3.15031780       4.59667375      -3.33344512
N        4.28022450       2.76379944      -4.14031220
C        5.15770809       3.51137587      -5.01828277
C        4.53895424       3.79654010      -6.38635337
C        4.15269915       2.55317625      -7.19576036
C        5.29120322       1.57835055      -7.51520674
C        6.48379900       2.16206849      -8.28296562
C        6.13259367       2.82873950      -9.61194997
N        5.52117116       1.90147719     -10.54561577
C        4.37585673       2.23389887     -11.24104270
O        3.77465268       3.29204499     -11.08394951
C        3.87924422       1.24855891     -12.24452265
C        3.03424295       1.71492705     -13.26290506
C        2.52077040       0.83459293     -14.21849450
C        2.84845793      -0.51750125     -14.15433815
C        3.67984729      -0.99705935     -13.14224775
C        4.19298946      -0.11580632     -12.18327911
H       -0.59382502       2.45167432      -1.06352146
H        0.83974978       3.87870656      -2.48474064
H        3.98726986       0.92896509      -2.24500071
H        2.54747773      -0.49440018      -0.85232764
H        4.24482269       1.76064122      -4.25739944
H        6.08411509       2.93741527      -5.11650713
H        5.41118431       4.46093124      -4.53320020
H        5.23792872       4.40931173      -6.96716162
H        3.63652170       4.40602586      -6.25148153
H        3.68538322       2.88220275      -8.13126090
H        3.37212549       2.00275888      -6.65604750
H        4.87273752       0.74351565      -8.09153613
H        5.66256572       1.13531602      -6.58344403
H        7.19680140       1.34861230      -8.46990436
H        7.00687553       2.88866094      -7.65054713
H        7.05061151       3.18822663     -10.09001864
H        5.49264068       3.70136839      -9.45122374
H        6.08219838       1.12443049     -10.86298682
H        2.76867661       2.77010609     -13.31096448
H        1.86510007       1.21391936     -14.99837461
H        3.92337118      -2.05510264     -13.08431010
H        4.80538065      -0.52004625     -11.38328094
C        2.31455615      -1.42920187     -15.13278123
C        1.86741341      -2.19275115     -15.95222731
Br       1.14442142      -3.42734575     -17.27720231
C       -0.88174994      -0.88174994      -0.88174994
C       -1.23227910      -0.45275971      -2.16113332
C       -2.03755846      -1.26305776      -2.96659621
C       -2.50156571      -2.49700012      -2.48978717
C       -2.12834375      -2.92593193      -1.20790988
C       -1.32192218      -2.11539050      -0.40304818
C       -3.34710632      -3.33595503      -3.38540672
O       -3.24926438      -3.22841097      -4.60276132
N       -4.22838603      -4.19533997      -2.76061014
C       -5.11385727      -5.06483145      -3.50867800
C       -6.42266529      -4.38674924      -3.91243319
C       -7.27732375      -3.87889695      -2.74541506
C       -7.72172953      -4.93514518      -1.72788579
C       -8.52616188      -6.11494879      -2.28772244
C       -9.79039182      -5.72911014      -3.05378118
N      -10.73680814      -5.00909293      -2.22236305
C      -11.34035234      -3.84806478      -2.66238118
O      -11.08585024      -3.32293922      -3.74185772
C      -12.36672730      -3.23485727      -1.77074121
C      -13.30275456      -2.36263549      -2.34668502
C      -14.27431124      -1.74183103      -1.55771555
C      -14.30855806      -1.98916899      -0.18756778
C      -13.37872772      -2.84665524       0.40034727
C      -12.40373051      -3.46738198      -0.38934976
H       -0.88174877       0.50283526      -2.54245724
H       -2.30338970      -0.93105201      -3.96875527
H       -2.42781468      -3.90039952      -0.83302146
H       -1.03402551      -2.45889321       0.58751352
H       -4.40082141      -4.09180309      -1.77023885
H       -5.30167363      -5.94708737      -2.88927649
H       -4.59119888      -5.40363426      -4.41048261
H       -7.00887179      -5.08726338      -4.51826689
H       -6.19774978      -3.53267694      -4.56360237
H       -8.16184947      -3.37938539      -3.15761202
H       -6.72346307      -3.09852285      -2.20894594
H       -8.31857048      -4.43370240      -0.95551642
H       -6.84163012      -5.33183910      -1.20785655
H       -8.80312595      -6.76475261      -1.44743951
H       -7.88609554      -6.71723415      -2.94275391
H      -10.30228000      -6.63829511      -3.38828166
H       -9.54060809      -5.15420995      -3.95041477
H      -11.13232148      -5.50216091      -1.43513331
H      -13.27342383      -2.15992518      -3.41639817
H      -14.98931744      -1.06670537      -2.02137122
H      -13.39702942      -3.02779631       1.47224708
H      -11.66746330      -4.09901681       0.09786478
C      -15.30344625      -1.34476511       0.63007586
C      -16.13666511      -0.80507687       1.31485241
Br     -17.48390954       0.06755339       2.42207817
C       -0.88174994       0.88174994       0.88174994
C       -0.60369528       2.24281879       0.99965806
C       -1.41392466       3.04763842       1.80564936
C       -2.49536129       2.49059344       2.50239827
C       -2.77588606       1.12376073       2.36253877
C       -1.96565162       0.31939451       1.55531472
C       -3.34177903       3.38609902       3.34059003
O       -3.42711898       4.57964884       3.07366886
N       -3.98091436       2.79276948       4.41065231
C       -4.83057810       3.54549058       5.31129804
C       -4.05772058       4.21976153       6.44436561
C       -3.27959979       3.26492567       7.35711030
C       -4.10999941       2.19723589       8.07752522
C       -5.24681834       2.71387836       8.96813641
C       -4.81940650       3.69976866      10.05410799
N       -3.87063467       3.11463325      10.98299620
C       -2.71924487       3.78270785      11.34884558
O       -2.39472320       4.87128355      10.88464042
C       -1.85623261       3.13659677      12.37949641
C       -0.96568169       3.94990733      13.09648605
C       -0.11724823       3.39744848      14.05916111
C       -0.15476055       2.02687636      14.30365793
C       -1.02831253       1.20460890      13.59211426
C       -1.87721495       1.75728726      12.62596005
H        0.23314972       2.68734008       0.46718040
H       -1.20118672       4.11198830       1.89002195
H       -3.63869617       0.67566548       2.84687401
H       -2.19417967      -0.73827741       1.44950293
H       -3.71226055       1.85971844       4.69088437
H       -5.58134025       2.85293337       5.70376388
H       -5.36168725       4.31035642       4.73327208
H       -4.75893401       4.81064990       7.04481816
H       -3.34398926       4.93445310       6.01558673
H       -2.73723613       3.86254918       8.09906156
H       -2.50608672       2.75700073       6.76784442
H       -3.42885490       1.59094277       8.68799163
H       -4.53513952       1.50758869       7.33859757
H       -5.72582700       1.84733942       9.44215165
H       -6.01520355       3.18587931       8.34500074
H       -5.69503647       3.98700031      10.64681999
H       -4.41866676       4.61601922       9.61054684
H       -4.18855266       2.33748714      11.54357588
H       -0.92730169       5.02079644      12.90164904
H        0.56823631       4.04310016      14.60253019
H       -1.04661954       0.13270839      13.77325071
H       -2.51929524       1.09095426      12.05836583
C        0.72399850       1.45271616      15.28941784
C        1.45995920       0.97185700      16.11499177
Br       2.64994541       0.19434841      17.44987498
C        0.88174994      -0.88174994       0.88174994
C        1.22465839      -0.45692871       2.16458502
C        2.02995938      -1.26722748       2.97002557
C        2.50159773      -2.49694755       2.48980773
C        2.13600777      -2.92180022       1.20437757
C        1.32956083      -2.11126585       0.39953418
C        3.34688596      -3.33612652       3.38545560
O        3.24314575      -3.23446371       4.60282721
N        4.23477238      -4.18877729       2.76078647
C        5.12078385      -5.05765467       3.50892820
C        6.42473628      -4.37556496       3.92154647
C        7.28230204      -3.85869962       2.76063410
C        7.73595186      -4.90839846       1.74041019
C        8.54315160      -6.08710086       2.29858066
C        9.80222078      -5.69906741       3.07199495
N       10.74909984      -4.97113358       2.24803070
C       11.34548152      -3.80940933       2.69590745
O       11.08383080      -3.29025420       3.77656218
C       12.37306334      -3.18765783       1.81160462
C       13.30260778      -2.31386188       2.39560540
C       14.27488139      -1.68521671       1.61375972
C       14.31633303      -1.92627052       0.24269129
C       13.39297279      -2.78525010      -0.35318719
C       12.41725514      -3.41383612       0.42937100
H        0.86816444       0.49538163       2.54858796
H        2.28983939      -0.93852622       3.97483137
H        2.44149908      -3.89323890       0.82649768
H        1.04761560      -2.45161394      -0.59382435
H        4.41115019      -4.08004628       1.77166688
H        5.31529897      -5.93628720       2.88645132
H        4.59563628      -5.40280999       4.40686948
H        7.01136655      -5.07616459       4.52687092
H        6.19310734      -3.52542271       4.57549904
H        8.16274154      -3.35710354       3.17900180
H        6.72735106      -3.07840780       2.22517301
H        8.33397704      -4.40085494       0.97295732
H        6.85995886      -5.30667705       1.21468986
H        8.82675654      -6.73190134       1.45666019
H        7.90287518      -6.69515266       2.94805575
H       10.31667520      -6.60745127       3.40473031
H        9.54587972      -5.12930004       3.97005304
H       11.15031464      -5.45891084       1.46039021
H       13.26760913      -2.11606953       3.46606851
H       14.98479039      -1.00899478       2.08360886
H       13.41685591      -2.96151296      -1.42579022
H       11.68599596      -4.04655739      -0.06393801
C       15.31195981      -1.27379431      -0.56761861
C       16.14579723      -0.72734550      -1.24625315
Br      17.49404182       0.15621603      -2.34354781
