69
Properties=species:S:1:pos:R:3 pbc="F F F"
C        0.00000000       0.00000000       0.00000000
C        0.88260400       0.88260400      -0.88260400
C        2.00964276       0.31773977      -1.51236792
C        2.83330764       1.10476911      -2.32526598
C        2.50959680       2.43833177      -2.48865025
N        3.17368315       3.40746353      -3.24242731
C        2.54037705       4.63040537      -3.15480099
O        2.84998875       5.67507849      -3.68061402
C        1.32059770       4.38988032      -2.22276667
O        0.48791914       5.19141661      -1.87039135
C        1.39013222       2.97400508      -1.85567548
C        0.55521069       2.22874322      -1.04709974
H        2.23871889      -0.73598905      -1.36440657
H        4.01074236       3.25582552      -3.78890500
H       -0.30877324       2.68022566      -0.56977810
C        3.98375478       0.52265259      -2.96652389
C        4.94725427       0.03513000      -3.50357739
Br       6.50515145      -0.75315280      -4.37194748
C       -0.88260400      -0.88260400      -0.88260400
C       -1.76774148      -0.27595226      -1.79605671
C       -2.58616822      -1.06207692      -2.61509758
C       -2.49940774      -2.43657149      -2.50059960
N       -3.20710291      -3.41324376      -3.20322732
C       -2.83917935      -4.68205145      -2.80435260
O       -3.25386233      -5.74490911      -3.20690982
C       -1.75942114      -4.46569889      -1.70812465
O       -1.16039842      -5.30759480      -1.08173387
C       -1.61658462      -3.01312821      -1.59009995
C       -0.79448329      -2.27007959      -0.76649078
H       -1.81340787       0.80946043      -1.86318898
H       -3.90280056      -3.23718846      -3.91548387
H       -0.11857491      -2.75405734      -0.06859827
C       -3.48889482      -0.43717552      -3.54686092
C       -4.24492835       0.08617941      -4.32721271
Br      -5.46737063       0.93240006      -5.58897556
C       -0.88260400       0.88260400       0.88260400
C       -0.32759682       2.03171070       1.48044292
C       -1.11483996       2.85585421       2.29264855
C       -2.43874668       2.51052570       2.48730645
N       -3.40611436       3.17066264       3.24679699
C       -4.61828154       2.51323426       3.19406760
O       -5.65873347       2.81339554       3.73355224
C       -4.37202307       1.28061894       2.28060267
O       -5.16403203       0.42661063       1.95908443
C       -2.96478528       1.36949096       1.88553654
C       -2.21899852       0.53339427       1.07866087
H        0.71865933       2.27751662       1.30827913
H       -3.26024082       4.02062731       3.77460476
H       -2.66282787      -0.34772336       0.62612600
C       -0.54283165       4.02893162       2.90116799
C       -0.06377469       5.01138394       3.41080302
Br       0.71081989       6.59992625       4.23483976
C        0.88260400      -0.88260400       0.88260400
C        0.29741570      -1.95054889       1.59178586
C        1.08400524      -2.77293501       2.40640248
C        2.43747547      -2.50710703       2.49199633
N        3.41028217      -3.18187858       3.23141325
C        4.65555439      -2.61349984       3.05652917
O        5.70910683      -2.94892884       3.54764558
C        4.42676992      -1.42785716       2.07861760
O        5.24793218      -0.65224266       1.64955226
C        2.99303777      -1.44547129       1.78130371
C        2.24885091      -0.61367538       0.96852737
H       -0.77172367      -2.13481763       1.50404246
H        3.24677084      -3.98441516       3.82428688
H        2.71614419       0.20433726       0.42942359
C        0.48108769      -3.86290154       3.12894202
C       -0.02385575      -4.77574852       3.73406889
Br      -0.84030659      -6.25174487       4.71250785
