90
Properties=species:S:1:pos:R:3 pbc="F F F"
C        1.79250802       1.79250802      -1.79250802
C        2.91954678       1.22764380      -2.42227194
C        3.74321166       2.01467314      -3.23517000
C        3.41950083       3.34823579      -3.39855428
N        4.08358717       4.31736755      -4.15233134
C        3.45028107       5.54030939      -4.06470501
O        3.75989277       6.58498252      -4.59051804
C        2.23050172       5.29978434      -3.13267069
O        1.39782316       6.10132063      -2.78029537
C        2.30003624       3.88390910      -2.76557951
C        1.46511472       3.13864725      -1.95700377
H        3.14862292       0.17391498      -2.27431059
H        4.92064639       4.16572955      -4.69880903
H        0.60113078       3.59012968      -1.47968212
C        4.89365881       1.43255661      -3.87642791
C        5.85715830       0.94503402      -4.41348141
Br       7.41505548       0.15675123      -5.28185150
C       -1.79250802      -1.79250802      -1.79250802
C       -2.76962929      -1.18996895      -2.60986428
C       -3.59004784      -1.97618261      -3.42682435
C       -3.41318620      -3.34664880      -3.40645591
N       -4.10429867      -4.32257724      -4.12641015
C       -3.63546160      -5.58686571      -3.83296816
O       -4.01018950      -6.64792573      -4.27727809
C       -2.50246051      -5.36813779      -2.79235846
O       -1.81458951      -6.20606239      -2.25878727
C       -2.44037917      -3.91918077      -2.58996491
C       -1.61340298      -3.17591465      -1.77144810
H       -2.88503788      -0.10767467      -2.60413594
H       -4.85374944      -4.14892450      -4.78251102
H       -0.86597798      -3.65669286      -1.14827175
C       -4.58697070      -1.35549018      -4.26018245
C       -5.42189360      -0.83566028      -4.95811985
Br      -6.77189331       0.00486072      -6.08662561
C       -1.79250802       1.79250802       1.79250802
C       -1.27356856       3.00364401       2.29224995
C       -2.06159274       3.82913064       3.10233142
C       -3.35016987       3.42304250       3.39307853
N       -4.31103683       4.07199438       4.17025485
C       -5.48363945       3.34650731       4.22514871
O       -6.50843165       3.61971313       4.80724855
C       -5.21650070       2.07799306       3.36846299
O       -5.97367068       1.16407111       3.14169738
C       -3.84092587       2.22132553       2.88727345
C       -3.09322734       1.38194196       2.08559643
H       -0.25465886       3.29648079       2.04570884
H       -4.18624088       4.95820666       4.64073742
H       -3.50901560       0.45259501       1.70933197
C       -1.52652131       5.06572658       3.61039545
C       -1.07839899       6.10137567       4.03589907
Br      -0.35382309       7.77593267       4.72390244
C        1.79250802      -1.79250802       1.79250802
C        1.22631598      -2.91632387       2.42682267
C        2.01331690      -3.73991976       3.23981814
C        3.34817960      -3.41936443       3.39874687
N        4.31756306      -4.08406171       4.15166130
C        5.54199905      -3.45438225       4.05891418
O        6.58730647      -3.76553353       4.58255333
C        5.30221603      -2.23640399       3.12433673
O        6.10502889      -1.40682398       2.76758629
C        3.88515951      -2.30307126       2.76129408
C        3.13996563      -1.46831473       1.95248537
H        0.17157950      -3.14295416       2.28231484
H        4.16515314      -4.91924731       4.70078451
H        3.59249061      -0.60686131       1.47159067
C        1.42985403      -4.88709901       3.88569030
C        0.94120387      -5.84786163       4.42660824
Br       0.15109789      -7.40133352       5.30122679
C       -0.00445707       0.01189536      -1.78238275
H       -0.66409135       0.67374010      -2.43557963
H        0.65740317      -0.63156657      -2.45157240
C       -0.90989263      -0.90692880      -0.91072765
C        0.90977584       0.90977584      -0.90977584
C       -0.00465871       1.77757030       0.00794375
H       -0.66225468       2.44313916      -0.64384735
H        0.64322798       2.43503045       0.67728295
C       -1.78241447       0.00034974      -0.00472694
H       -2.45427497      -0.65498947       0.64260836
H       -2.43311707       0.67328779      -0.65473579
C       -0.91132561       0.90220522       0.91563759
C       -0.01476271      -0.02253852       1.78660255
H       -0.67934791      -0.69751639       2.42135241
H        0.63392994       0.61504881       2.47327442
C        0.01484550      -1.77751727      -0.01636693
H        0.67870853      -2.42144646      -0.68295456
H       -0.62264859      -2.45592969       0.64226336
C        1.78714474       0.01002794       0.00389507
H        2.44202412       0.67113390       0.66197326
H        2.45385902      -0.65136977      -0.64189061
C        0.91606151      -0.90478549       0.90901405
