165
Properties=species:S:1:pos:R:3 pbc="F F F"
C        0.00000000       0.00000000       0.00000000
C        0.88164848       0.88164848      -0.88164848
C        2.20473982       1.12257392      -0.51294665
C        3.01348734       1.93362973      -1.31419502
C        2.49241343       2.51354096      -2.47803092
C        1.16705489       2.24788042      -2.84938904
C        0.35995753       1.43482916      -2.04934867
C        3.30295360       3.41043968      -3.34938505
O        3.01827509       3.54446603      -4.53497273
N        4.32702224       4.09971732      -2.73119584
C        5.11892203       5.07287958      -3.45404024
C        6.34825781       4.44619846      -4.10150393
C        7.25118278       5.46579030      -4.80682213
C        6.67975303       6.03771879      -6.10847158
N        5.54392753       6.91392546      -5.91042744
C        5.68185990       8.21087493      -5.46697344
O        6.76225761       8.74708755      -5.25268313
C        4.41814711       8.96957595      -5.25613656
C        4.41799733      10.34872280      -5.49783532
C        3.25775550      11.09903855      -5.28634330
C        2.10447572      10.47241459      -4.81532441
Br       0.53894090      11.48705982      -4.51359039
C        2.09875013       9.10294634      -4.55644590
C        3.25456188       8.35003721      -4.77936080
H        2.61684822       0.67967477       0.39071493
H        4.05003060       2.08138400      -1.02516168
H        0.75735946       2.68137986      -3.76016524
H       -0.66829635       1.24284549      -2.34521823
H        4.43401068       4.06376518      -1.72846134
H        5.40707092       5.85327870      -2.74252970
H        4.47119151       5.51594987      -4.20741647
H        6.04832961       3.66173807      -4.80697453
H        6.93679807       3.94641597      -3.32111657
H        8.19152072       4.95703712      -5.05431834
H        7.50700100       6.27446643      -4.11198972
H        6.35932295       5.22947289      -6.77422096
H        7.46084255       6.60757460      -6.62458231
H        4.63289680       6.57578287      -6.19602565
H        5.32207545      10.83955570      -5.85315919
H        3.26742307      12.16756539      -5.48514219
H        1.20613250       8.61341345      -4.17403803
H        3.23253087       7.29054773      -4.54765441
C       -0.88164848      -0.88164848      -0.88164848
C       -2.19848186      -1.13957665      -0.50220188
C       -3.00713069      -1.95070711      -1.30347430
C       -2.49205739      -2.51368245      -2.47824547
C       -1.17323083      -2.23097228      -2.86012124
C       -0.36626410      -1.41785115      -2.06002010
C       -3.30234861      -3.40996520      -3.35046452
O       -3.02831876      -3.52926775      -4.54012734
N       -4.31319586      -4.11567565      -2.72906390
C       -5.10258910      -5.08950922      -3.45374354
C       -6.34458948      -4.46882544      -4.08254528
C       -7.24435631      -5.49037877      -4.78906013
C       -6.68040200      -6.04348810      -6.10205330
N       -5.53394382      -6.91012771      -5.92420890
C       -5.65443850      -8.21276597      -5.49250380
O       -6.72721151      -8.76196176      -5.27285502
C       -4.38115026      -8.96074958      -5.30195977
C       -4.36966664     -10.33734247      -5.55754635
C       -3.19991607     -11.07799185      -5.36522945
C       -2.04825883     -10.44450199      -4.89945389
Br      -0.46970636     -11.44626740      -4.62361736
C       -2.05359775      -9.07769902      -4.62684561
C       -3.21905980      -8.33429778      -4.83060232
H       -2.60585669      -0.70990250       0.40995112
H       -4.03917880      -2.11178770      -1.00560977
H       -0.76843435      -2.65120096      -3.77926925
H        0.65698485      -1.21256095      -2.36419126
H       -4.41041853      -4.09081925      -1.72499942
H       -5.37573954      -5.87984104      -2.74729874
H       -4.45809833      -5.51847860      -4.21798092
H       -6.05964055      -3.67437426      -4.78302741
H       -6.93018981      -3.98282227      -3.29131852
H       -8.19217613      -4.98869006      -5.02200999
H       -7.48506519      -6.30849212      -4.09989984
H       -6.37479012      -5.22544365      -6.76278302
H       -7.46092815      -6.61601119      -6.61606012
H       -4.62926211      -6.55997824      -6.21546497
H       -5.27233633     -10.83369669      -5.90875732
H       -3.20091785     -12.14452342      -5.57468938
H       -1.16210123      -8.58303072      -4.24845203
H       -3.20527366      -7.27700655      -4.58845280
C       -0.88164848       0.88164848       0.88164848
C       -0.39103263       1.34866737       2.10056040
C       -1.19683847       2.15127121       2.91320242
C       -2.49875402       2.47510930       2.51012199
C       -2.97400090       2.01678374       1.27353971
C       -2.16695845       1.21671807       0.46045884
C       -3.40854145       3.30073224       3.35350464
O       -4.32572299       3.93252637       2.83946449
N       -3.18550633       3.25718400       4.71524508
C       -4.06512077       3.93961121       5.64110988
C       -3.60603141       5.36506810       5.92486069
C       -4.47150750       6.08764201       6.96464570
C       -5.86883914       6.48212480       6.47497945
N       -6.75159169       5.35395947       6.26272927
C       -7.36464735       4.69157797       7.30348294
O       -7.26080432       5.02296258       8.47826139
C       -8.19752765       3.51467209       6.93165988
C       -9.33528793       3.23204421       7.69722331
C      -10.12754228       2.12088023       7.39471486
C       -9.77043706       1.28299970       6.33877796
Br     -10.83100742      -0.22879210       5.93737579
C       -8.63103030       1.54649925       5.58061282
C       -7.84538341       2.66400024       5.87457625
H        0.61703678       1.09939589       2.42344896
H       -0.78295353       2.53056674       3.84305600
H       -3.97889049       2.27574690       0.94426718
H       -2.55056020       0.86203223      -0.49282507
H       -2.50954726       2.61521636       5.10147358
H       -4.09354567       3.34777639       6.56155727
H       -5.05906826       3.93653439       5.19895519
H       -3.57488370       5.94668992       4.99546860
H       -2.57440118       5.33122354       6.29870589
H       -3.94734734       7.00995023       7.24557860
H       -4.54113511       5.47860258       7.87371946
H       -5.80304990       7.03054068       5.52942622
H       -6.33590817       7.14293002       7.21416127
H       -6.98527416       5.11209628       5.30733488
H       -9.60641734       3.87901844       8.52935457
H      -11.01288815       1.91618372       7.99105878
H       -8.34043910       0.88668940       4.76645547
H       -6.95043300       2.83451799       5.28578202
C        0.88164848      -0.88164848       0.88164848
C        0.57510177      -1.03141723       2.23374139
C        1.38281241      -1.83299549       3.04550420
C        2.50496658      -2.47403712       2.50498161
C        2.79168275      -2.33251246       1.14012914
C        1.98226826      -1.53320928       0.32865782
C        3.41541047      -3.31360681       3.33376105
O        4.09266475      -4.19315485       2.81189425
N        3.48073547      -3.00044262       4.67675732
C        4.40241135      -3.68199866       5.56143185
C        3.77923286      -4.91884116       6.19788617
C        4.70345924      -5.61738230       7.20295367
C        5.88860426      -6.36017616       6.57716298
N        6.88574298      -5.48352784       5.99900961
C        7.79666764      -4.79414576       6.76889486
O        7.87720708      -4.89796111       7.98686010
C        8.72172017      -3.88695153       6.03518792
C       10.02083836      -3.71528721       6.52842988
C       10.90965914      -2.85188437       5.88159385
C       10.49215306      -2.14677852       4.75328314
Br      11.68674870      -0.96690691       3.88593551
C        9.19611015      -2.29841544       4.26361678
C        8.31089943      -3.17068319       4.90237728
H       -0.29185882      -0.53469242       2.66297447
H        1.10688753      -1.96152487       4.08816387
H        3.65268076      -2.83901658       0.70720722
H        2.22016192      -1.42625304      -0.72664760
H        3.01239397      -2.18074977       5.03309346
H        4.71303341      -2.96333826       6.32650765
H        5.27373554      -3.95208648       4.96873582
H        3.46588373      -5.62858164       5.42257684
H        2.86395011      -4.61689623       6.72348427
H        4.10052375      -6.35587212       7.74648031
H        5.05443576      -4.89227520       7.94674618
H        5.54408550      -7.03358937       5.78534192
H        6.37810684      -6.96905550       7.34583713
H        6.95972328      -5.45574405       4.98923799
H       10.34213587      -4.25602317       7.41663130
H       11.91815889      -2.73290404       6.26906772
H        8.86176588      -1.73839248       3.39342562
H        7.30032397      -3.25348296       4.51692608
