186
Properties=species:S:1:pos:R:3 pbc="F F F"
C        1.79155250       1.79155250      -1.79155250
C        3.11464385       2.03247795      -1.42285067
C        3.92339136       2.84353376      -2.22409905
C        3.40231746       3.42344498      -3.38793494
C        2.07695891       3.15778445      -3.75929307
C        1.26986155       2.34473319      -2.95925269
C        4.21285763       4.32034370      -4.25928907
O        3.92817911       4.45437005      -5.44487675
N        5.23692626       5.00962135      -3.64109987
C        6.02882606       5.98278361      -4.36394427
C        7.25816183       5.35610248      -5.01140796
C        8.16108681       6.37569432      -5.71672615
C        7.58965706       6.94762281      -7.01837560
N        6.45383155       7.82382949      -6.82033147
C        6.59176392       9.12077895      -6.37687747
O        7.67216164       9.65699158      -6.16258715
C        5.32805114       9.87947998      -6.16604058
C        5.32790135      11.25862682      -6.40773935
C        4.16765953      12.00894258      -6.19624733
C        3.01437975      11.38231861      -5.72522843
Br       1.44884492      12.39696385      -5.42349442
C        3.00865415      10.01285037      -5.46634992
C        4.16446591       9.25994124      -5.68926483
H        3.52675224       1.58957880      -0.51918910
H        4.95993463       2.99128802      -1.93506570
H        1.66726348       3.59128388      -4.67006927
H        0.24160767       2.15274951      -3.25512225
H        5.34391471       4.97366920      -2.63836536
H        6.31697494       6.76318273      -3.65243373
H        5.38109553       6.42585389      -5.11732050
H        6.95823364       4.57164210      -5.71687855
H        7.84670209       4.85631999      -4.23102059
H        9.10142475       5.86694114      -5.96422237
H        8.41690502       7.18437045      -5.02189374
H        7.26922697       6.13937691      -7.68412498
H        8.37074658       7.51747863      -7.53448633
H        5.54280082       7.48568690      -7.10592968
H        6.23197947      11.74945972      -6.76306322
H        4.17732710      13.07746942      -6.39504621
H        2.11603652       9.52331747      -5.08394205
H        4.14243489       8.20045175      -5.45755844
C       -1.79155250      -1.79155250      -1.79155250
C       -2.72379309      -2.64450504      -1.20167433
C       -3.52883229      -3.45734424      -2.00484763
C       -3.39056123      -3.42468052      -3.39845562
C       -2.46431457      -2.54856307      -3.98115878
C       -1.66175850      -1.73432831      -3.17776062
C       -4.20195380      -4.29337038      -4.29716622
O       -4.40203861      -3.96376786      -5.46161945
N       -4.64759629      -5.48312661      -3.75692458
C       -5.36085348      -6.45177858      -4.56292187
C       -6.86838225      -6.22971423      -4.52757579
C       -7.65806230      -7.28899403      -5.30645095
C       -7.53459540      -7.19047791      -6.83058216
N       -6.22272462      -7.54268593      -7.33258195
C       -5.80062570      -8.84968187      -7.43911277
O       -6.50294826      -9.81711413      -7.17167797
C       -4.40504328      -9.05102051      -7.91750791
C       -4.12023039     -10.18247046      -8.69156667
C       -2.81664647     -10.41901264      -9.13719033
C       -1.79589275      -9.53376646      -8.79226758
Br      -0.02963219      -9.85942660      -9.38024440
C       -2.06588260      -8.41310382      -8.00886802
C       -3.37100804      -8.16931958      -7.57334435
H       -2.83563960      -2.67935069      -0.12052986
H       -4.27049767      -4.08998972      -1.52580096
H       -2.36008843      -2.50455565      -5.06397255
H       -0.94239277      -1.06472817      -3.64235849
H       -4.34056409      -5.77446694      -2.84091824
H       -5.10335275      -7.44576617      -4.18347247
H       -4.98270980      -6.36252642      -5.57903371
H       -7.11430428      -5.22905967      -4.90339034
H       -7.19980473      -6.25298161      -3.48125634
H       -8.71805913      -7.16248097      -5.05204815
H       -7.37141695      -8.28970136      -4.96205091
H       -7.75306980      -6.17181193      -7.16784714
H       -8.26607417      -7.86165342      -7.29498395
H       -5.64169057      -6.79683703      -7.69588980
H       -4.91483649     -10.87996325      -8.94970267
H       -2.60920213     -11.29642275      -9.74421785
H       -1.26980146      -7.72895873      -7.72453586
H       -3.55173724      -7.30386002      -6.94484782
C       -1.79155250       1.79155250       1.79155250
C       -1.31288613       2.23210365       3.02498268
C       -2.11884768       3.03460333       3.83757315
C       -3.40919816       3.38484450       3.41965472
C       -3.87209037       2.95301625       2.16892981
C       -3.06484670       2.15304159       1.35595914
C       -4.31924228       4.21150679       4.26174133
O       -5.21849456       4.86533623       3.74359514
N       -4.11815538       4.14359177       5.62590033
C       -5.00151727       4.82535630       6.54868036
C       -4.52508228       6.23896078       6.86162921
C       -5.39546878       6.95889352       7.89914499
C       -6.77877855       7.38257876       7.39429816
N       -7.67532692       6.27170123       7.15096436
C       -8.31462540       5.60306045       8.17173449
O       -8.22403312       5.91471607       9.35299118
C       -9.15957417       4.44512584       7.76887169
C      -10.31333347       4.16855050       8.51238355
C      -11.11773743       3.07464491       8.18046709
C      -10.75711815       2.24760541       7.11720323
Br     -11.83438141       0.75886818       6.67605361
C       -9.60212168       2.50491777       6.38081499
C       -8.80409312       3.60539300       6.70418585
H       -0.31391699       1.96222246       3.35938069
H       -1.71373451       3.39308477       4.77946907
H       -4.86763218       3.23263521       1.82834924
H       -3.43894099       1.81905153       0.39148692
H       -3.45823170       3.48531308       6.01240449
H       -5.05336681       4.21997876       7.45924583
H       -5.98838194       4.84456000       6.09132798
H       -4.47052792       6.83422260       5.94200377
H       -3.50004579       6.18330559       7.25069130
H       -4.86165718       7.86849868       8.20243240
H       -5.48859793       6.33713231       8.79743898
H       -6.68984869       7.94435065       6.45852953
H       -7.24711566       8.03916111       8.13643478
H       -7.89777325       6.04820231       6.18844184
H      -10.58743900       4.80682428       9.35023913
H      -12.01530886       2.87464498       8.75988888
H       -9.30903620       1.85323220       5.56102765
H       -7.89756173       3.77095676       6.13192659
C        1.79155250      -1.79155250       1.79155250
C        1.21442443      -2.53511561       2.82043243
C        2.01863950      -3.33901698       3.63336769
C        3.40276941      -3.38767040       3.42325757
C        3.96913312      -2.65173728       2.37316603
C        3.16423022      -1.85041241       1.55920481
C        4.30760260      -4.20383153       4.28105628
O        5.38862462      -4.59002688       3.84877442
N        3.87897988      -4.43595341       5.57271419
C        4.71675777      -5.13194376       6.52685240
C        4.48004094      -6.63753935       6.50809198
C        5.29411065      -7.39486765       7.56452899
C        6.79653097      -7.48262006       7.27650444
N        7.48728455      -6.21541525       7.39529270
C        7.81048215      -5.66351903       8.61541916
O        7.59218182      -6.20940213       9.69015640
C        8.46799451      -4.32812183       8.57745536
C        9.41004116      -4.01832004       9.56590632
C       10.02929193      -2.76522872       9.57832878
C        9.69174110      -1.81673512       8.61345057
Br      10.51588022      -0.11624131       8.63718166
C        8.74359836      -2.10948635       7.63476973
C        8.13317665      -3.36623953       7.61425580
H        0.14134259      -2.50078786       2.99338969
H        1.54391485      -3.93458164       4.40779186
H        5.04179375      -2.69483859       2.19198429
H        3.61736330      -1.27917433       0.75294180
H        3.04994702      -3.98110494       5.92489731
H        4.50176955      -4.71493697       7.51588487
H        5.74929119      -4.90180269       6.27317604
H        4.69191222      -7.04343581       5.51140627
H        3.41454677      -6.82531623       6.69417968
H        4.90544328      -8.42027718       7.60686780
H        5.11785966      -6.95294046       8.55236910
H        6.97124692      -7.85854314       6.26293881
H        7.25714203      -8.18631805       7.97925146
H        7.81487482      -5.77600524       6.54353733
H        9.66368343      -4.75436678      10.32645220
H       10.76494666      -2.53908191      10.34581415
H        8.46606034      -1.36705086       6.89018485
H        7.38099754      -3.56191437       6.85753317
C       -0.00445707       0.01189536      -1.78238275
H       -0.66409135       0.67374010      -2.43557963
H        0.65740317      -0.63156657      -2.45157240
C       -0.90989263      -0.90692880      -0.91072765
C        0.90977584       0.90977584      -0.90977584
C       -0.00465871       1.77757030       0.00794375
H       -0.66225468       2.44313916      -0.64384735
H        0.64322798       2.43503045       0.67728295
C       -1.78241447       0.00034974      -0.00472694
H       -2.45427497      -0.65498947       0.64260836
H       -2.43311707       0.67328779      -0.65473579
C       -0.91132561       0.90220522       0.91563759
C       -0.01476271      -0.02253852       1.78660255
H       -0.67934791      -0.69751639       2.42135241
H        0.63392994       0.61504881       2.47327442
C        0.01484550      -1.77751727      -0.01636693
H        0.67870853      -2.42144646      -0.68295456
H       -0.62264859      -2.45592969       0.64226336
C        1.78714474       0.01002794       0.00389507
H        2.44202412       0.67113390       0.66197326
H        2.45385902      -0.65136977      -0.64189061
C        0.91606151      -0.90478549       0.90901405
