194
Properties=species:S:1:pos:R:3 pbc="F F F"
C        1.79155250       1.79155250      -1.79155250
C        3.11464385       2.03247795      -1.42285067
C        3.92339136       2.84353376      -2.22409905
C        3.40231746       3.42344498      -3.38793494
C        2.07695891       3.15778445      -3.75929307
C        1.26986155       2.34473319      -2.95925269
C        4.21285763       4.32034370      -4.25928907
O        3.92817911       4.45437005      -5.44487675
N        5.23692626       5.00962135      -3.64109987
C        6.02882606       5.98278361      -4.36394427
C        7.25816183       5.35610248      -5.01140796
C        8.16108681       6.37569432      -5.71672615
C        7.58965706       6.94762281      -7.01837560
N        6.45383155       7.82382949      -6.82033147
C        6.59176392       9.12077895      -6.37687747
O        7.67216164       9.65699158      -6.16258715
C        5.32805114       9.87947998      -6.16604058
C        5.32790135      11.25862682      -6.40773935
C        4.16765953      12.00894258      -6.19624733
C        3.01437975      11.38231861      -5.72522843
C        3.00865415      10.01285037      -5.46634992
C        4.16446591       9.25994124      -5.68926483
H        3.52675224       1.58957880      -0.51918910
H        4.95993463       2.99128802      -1.93506570
H        1.66726348       3.59128388      -4.67006927
H        0.24160767       2.15274951      -3.25512225
H        5.34391471       4.97366920      -2.63836536
H        6.31697494       6.76318273      -3.65243373
H        5.38109553       6.42585389      -5.11732050
H        6.95823364       4.57164210      -5.71687855
H        7.84670209       4.85631999      -4.23102059
H        9.10142475       5.86694114      -5.96422237
H        8.41690502       7.18437045      -5.02189374
H        7.26922697       6.13937691      -7.68412498
H        8.37074658       7.51747863      -7.53448633
H        5.54280082       7.48568690      -7.10592968
H        6.23197947      11.74945972      -6.76306322
H        4.17732710      13.07746942      -6.39504621
H        2.11603652       9.52331747      -5.08394205
H        4.14243489       8.20045175      -5.45755844
C        1.82148238      12.15545225      -5.49531486
C        0.82243084      12.80295167      -5.30276224
Br      -0.79295102      13.84990347      -4.99142094
C       -1.79155250      -1.79155250      -1.79155250
C       -2.60032061      -2.76448666      -1.20516519
C       -3.40458873      -3.57741978      -2.00901567
C       -3.38855639      -3.42383132      -3.40130967
C       -2.58694835      -2.42896198      -3.97812609
C       -1.78523701      -1.61487192      -3.17373850
C       -4.20289264      -4.28528321      -4.30431456
O       -4.52671508      -3.88356793      -5.41714291
N       -4.50613715      -5.54739714      -3.83411319
C       -5.20725438      -6.50705207      -4.66124749
C       -6.71904936      -6.41770783      -4.48891509
C       -7.48665200      -7.47602062      -5.29083467
C       -7.50161334      -7.24804172      -6.80600041
N       -6.21370820      -7.44670435      -7.43757995
C       -5.70096178      -8.70057614      -7.68788242
O       -6.29985019      -9.74232517      -7.44956501
C       -4.33973669      -8.74410461      -8.28973039
C       -4.03400583      -9.78292578      -9.17733591
C       -2.75860498      -9.87183142      -9.74241304
C       -1.78480261      -8.93263736      -9.40448681
C       -2.07416780      -7.90400089      -8.50968576
C       -3.35252868      -7.80724070      -7.95390259
H       -2.61655902      -2.89347031      -0.12549081
H       -4.05079666      -4.30659421      -1.52889747
H       -2.57914022      -2.29139653      -5.05807988
H       -1.16284747      -0.85202554      -3.63460642
H       -4.10025921      -5.88249838      -2.97319169
H       -4.84115261      -7.50218468      -4.38925411
H       -4.92523980      -6.30644129      -5.69258882
H       -7.07386385      -5.41525179      -4.75763865
H       -6.95726150      -6.55116759      -3.42561358
H       -8.52776433      -7.46064217      -4.94418176
H       -7.09406090      -8.47259393      -5.05651439
H       -7.82729374      -6.22838196      -7.03705316
H       -8.21506767      -7.94058197      -7.26706189
H       -5.72607212      -6.62785799      -7.78048728
H       -4.79052206     -10.52317168      -9.43080867
H       -2.53542537     -10.67802295     -10.43639440
H       -1.31290690      -7.17894290      -8.23144625
H       -3.54640588      -7.01232773      -7.24171147
C       -0.46671892      -9.02927814      -9.97625243
C        0.63717618      -9.11021478     -10.45510614
Br       2.42208119      -9.24108250     -11.22937208
C       -1.79155250       1.79155250       1.79155250
C       -1.25844384       2.94440584       2.36712279
C       -2.06046654       3.75116665       3.17939098
C       -3.39295296       3.39561116       3.42513326
C       -3.92377710       2.24542832       2.82483101
C       -3.12220805       1.44085630       2.01078308
C       -4.28025669       4.20404105       4.30819267
O       -5.49834618       4.15778710       4.17129263
N       -3.65387704       4.93874921       5.29502123
C       -4.41770084       5.68460793       6.27324516
C       -4.69471995       7.11269996       5.81825236
C       -5.43225528       7.95359055       6.86766146
C       -6.90434263       7.58013819       7.07117466
N       -7.09617380       6.29379383       7.70802488
C       -6.92008091       6.10775107       9.06158835
O       -6.64004734       7.00862682       9.84306620
C       -7.09692597       4.71606718       9.56057855
C       -7.62118825       4.52789746      10.84518181
C       -7.77768647       3.23705375      11.35810921
C       -7.39205985       2.13677797      10.59308897
C       -6.85433937       2.31398370       9.31953137
C       -6.70904797       3.60343250       8.80119150
H       -0.22408920       3.22643185       2.18499909
H       -1.63396774       4.66141096       3.59090964
H       -4.96256810       1.96885832       2.99719020
H       -3.54448823       0.54770120       1.55729000
H       -2.66322737       4.83576524       5.45695667
H       -3.84845073       5.67592028       7.20822038
H       -5.34839706       5.14412392       6.43174893
H       -5.25934395       7.10948407       4.87792626
H       -3.73630954       7.60037141       5.59736172
H       -5.39962348       8.99864475       6.53432003
H       -4.89063559       7.91243002       7.82010360
H       -7.42928378       7.55292400       6.11052108
H       -7.38587330       8.34180182       7.69503641
H       -7.45732721       5.53656350       7.14052669
H       -7.91001983       5.38754820      11.44693438
H       -8.19327159       3.10311589      12.35345525
H       -6.53774441       1.45940136       8.72615029
H       -6.26586617       3.71694977       7.81762915
C       -7.54132893       0.80667030      11.12425025
C       -7.66634179      -0.30729488      11.56909783
Br      -7.86847701      -2.10848236      12.28837874
C        1.79155250      -1.79155250       1.79155250
C        1.39065771      -2.08473292       3.09458183
C        2.19749681      -2.88671399       3.90681337
C        3.41213354      -3.38416630       3.41739755
C        3.79510683      -3.09965225       2.09927735
C        2.98675377      -2.30009397       1.28699968
C        4.32294091      -4.21702529       4.25252420
O        5.11547898      -4.98904205       3.72290489
N        4.25101722      -4.01961550       5.61701476
C        5.15445864      -4.69963622       6.52145907
C        4.59350230      -6.03443872       6.99773124
C        5.49120011      -6.74176376       8.02054341
C        6.78429758      -7.32757365       7.44378424
N        7.74363365      -6.32514354       7.02921532
C        8.52445925      -5.63486643       7.93009466
O        8.51467827      -5.83912352       9.13793857
C        9.42216259      -4.59420676       7.35720234
C       10.65663531      -4.36190246       7.97572976
C       11.51518715      -3.37534405       7.48231823
C       11.12997166      -2.60944568       6.38250945
C        9.89649005      -2.82193402       5.76943037
C        9.04296216      -3.81628567       6.25442414
H        0.45117201      -1.69998280       3.48436533
H        1.85025504      -3.12895102       4.90708229
H        4.72983773      -3.49426889       1.70451001
H        3.29917483      -2.08124423       0.26906038
H        3.68461865      -3.27541145       5.99591918
H        5.33712651      -4.02862253       7.36684235
H        6.09150547      -4.84457600       5.98818845
H        4.40816924      -6.69591333       6.14267173
H        3.61544667      -5.85550748       7.46308853
H        4.91380625      -7.57195593       8.44682608
H        5.71508877      -6.05918992       8.84889053
H        6.56614818      -7.95405487       6.57252582
H        7.26168583      -7.96028304       8.20074267
H        7.89663248      -6.20223366       6.03555126
H       10.95130037      -4.95119554       8.84200650
H       12.47439485      -3.20959026       7.96585762
H        9.58570387      -2.21614622       4.92144596
H        8.07832918      -3.94646822       5.77564768
C       12.00778930      -1.58453179       5.87992839
C       12.74296157      -0.72616641       5.45901675
Br      13.93167296       0.66173781       4.77843824
C       -0.00445707       0.01189536      -1.78238275
H       -0.66409135       0.67374010      -2.43557963
H        0.65740317      -0.63156657      -2.45157240
C       -0.90989263      -0.90692880      -0.91072765
C        0.90977584       0.90977584      -0.90977584
C       -0.00465871       1.77757030       0.00794375
H       -0.66225468       2.44313916      -0.64384735
H        0.64322798       2.43503045       0.67728295
C       -1.78241447       0.00034974      -0.00472694
H       -2.45427497      -0.65498947       0.64260836
H       -2.43311707       0.67328779      -0.65473579
C       -0.91132561       0.90220522       0.91563759
C       -0.01476271      -0.02253852       1.78660255
H       -0.67934791      -0.69751639       2.42135241
H        0.63392994       0.61504881       2.47327442
C        0.01484550      -1.77751727      -0.01636693
H        0.67870853      -2.42144646      -0.68295456
H       -0.62264859      -2.45592969       0.64226336
C        1.78714474       0.01002794       0.00389507
H        2.44202412       0.67113390       0.66197326
H        2.45385902      -0.65136977      -0.64189061
C        0.91606151      -0.90478549       0.90901405
