150
Properties=species:S:1:pos:R:3 pbc="F F F"
C        1.77694816       1.77694816      -1.77694816
C        2.69426534       2.69464196      -1.31902194
C        3.32894746       3.22440887      -2.46800241
C        2.74697035       2.60896295      -3.55998988
O        1.77202159       1.74707861      -3.13678717
C        3.03922817       2.71089830      -4.97271899
O        4.17299724       2.94669674      -5.38469518
N        1.92606086       2.60644958      -5.77366631
C        1.91834715       2.79505655      -7.15347210
C        2.96552777       2.41632166      -7.97811699
C        2.85573782       2.66800197      -9.34128138
C        1.72758804       3.32695209      -9.82237411
C        0.72957190       3.68546100      -8.92404727
N        0.79879589       3.37407775      -7.61953535
N       -0.35168367       4.42534801      -9.41025846
C       -1.37431450       4.94032339      -8.63756424
O       -1.50474143       4.81166220      -7.42491635
C       -2.34256287       5.68893430      -9.41869953
C       -3.54935770       6.25339555      -9.05093872
C       -4.08630613       6.86071173     -10.21021040
C       -3.17043964       6.64453847     -11.21397297
Br      -3.34707104       7.24303638     -12.97191548
O       -2.11086726       5.92789368     -10.74916844
H        2.89847710       2.93812216      -0.28593012
H        4.11791874       3.96408368      -2.51039802
H        1.02343459       2.75155146      -5.33805466
H        3.84436373       1.91484479      -7.58754710
H        3.65331327       2.36996025     -10.01633799
H        1.65371294       3.56172298     -10.87845931
H       -0.37329206       4.65231054     -10.39505486
H       -3.97878252       6.21381792      -8.05821009
H       -5.02413280       7.39185809     -10.29628406
C       -1.77694816      -1.77694816      -1.77694816
C       -2.25760085      -1.43127916      -3.01904924
C       -2.95936678      -2.56301380      -3.49897816
C       -2.87858980      -3.52615330      -2.51118008
O       -2.18279707      -3.03118547      -1.44190484
C       -3.35212448      -4.89227995      -2.47844102
O       -3.43191604      -5.57521150      -3.49726161
N       -3.77351888      -5.29872387      -1.23393400
C       -4.38699937      -6.51883375      -0.96104268
C       -4.05403505      -7.69828476      -1.60764661
C       -4.74424610      -8.85578579      -1.26498928
C       -5.76857290      -8.78352225      -0.32481910
C       -6.04794303      -7.55680637       0.26566923
N       -5.33112096      -6.45437029      -0.00691773
N       -7.13715065      -7.48503732       1.13826517
C       -7.60593841      -6.32893088       1.73129616
O       -7.13323621      -5.20427474       1.60567382
C       -8.77019665      -6.56184375       2.56696945
C       -9.45658017      -5.70738677       3.40899038
C      -10.50942624      -6.45795587       3.98276610
C      -10.41366205      -7.72178732       3.44737757
Br     -11.56358674      -9.13870028       3.83440619
O       -9.35771924      -7.80083706       2.59236145
H       -2.10469585      -0.48999451      -3.52783901
H       -3.46582976      -2.67803632      -4.44853435
H       -3.98143292      -4.57761577      -0.55399202
H       -3.26194003      -7.73727593      -2.34753965
H       -4.49677459      -9.79950190      -1.74333503
H       -6.33719680      -9.67443452      -0.08226390
H       -7.66361168      -8.32893665       1.31847499
H       -9.20615447      -4.66864126       3.58155024
H      -11.24593377      -6.11359357       4.69551799
C       -1.77694816       1.77694816       1.77694816
C       -3.02817860       2.23977024       1.43998041
C       -3.50333516       2.94886736       2.56915621
C       -2.50399677       2.89000297       3.52192345
O       -1.43252653       2.20064732       3.02271353
C       -2.46135630       3.37926762       4.88222153
O       -3.47332485       3.45538522       5.57567908
N       -1.21722621       3.81909194       5.26985859
C       -0.93767400       4.44931732       6.47988448
C       -1.56726930       4.12249256       7.67020457
C       -1.21952518       4.82951083       8.81598516
C       -0.29184539       5.86338900       8.72167985
C        0.28171880       6.13546619       7.48533277
N        0.00495143       5.40324426       6.39411615
N        1.14110585       7.23346817       7.39156048
C        1.71586207       7.69576472       6.22367049
O        1.58303652       7.20902176       5.10585188
C        2.54088537       8.87183563       6.43412069
C        3.36551111       9.55788606       5.56260162
C        3.93570704      10.62547948       6.29484357
C        3.41557710      10.53801929       7.56562961
Br       3.80539271      11.70811750       8.96515604
O        2.57347335       9.47355640       7.66611180
H       -3.54568671       2.07057670       0.50626596
H       -4.45720568       3.44596396       2.68923079
H       -0.54776811       4.02642927       4.53884333
H       -2.29769066       3.32267719       7.72638777
H       -1.68448058       4.58738505       9.76774589
H       -0.04579431       6.44470798       9.60339294
H        1.32477058       7.77140275       8.22744117
H        3.52927970       9.29769056       4.52483462
H        4.63620900      11.36596359       5.93425477
C        1.77694816      -1.77694816       1.77694816
C        2.33256479      -1.39799420       2.97737025
C        3.00375981      -2.53900259       3.47859633
C        2.83093650      -3.54165705       2.54332963
O        2.10780941      -3.06347260       1.48460537
C        3.23879424      -4.92914652       2.55490468
O        3.33618465      -5.56740151       3.60080300
N        3.58028608      -5.41248936       1.31340131
C        4.12289583      -6.67213972       1.07184025
C        3.76753716      -7.80300946       1.78941981
C        4.38621949      -9.00712211       1.47167957
C        5.36610575      -9.02795464       0.48285385
C        5.67288570      -7.84474382      -0.17854935
N        5.02172132      -6.69751862       0.07316904
N        6.72075390      -7.86609061      -1.10292170
C        7.21314676      -6.76261215      -1.77218577
O        6.79947154      -5.61180756      -1.67944198
C        8.32362574      -7.08988638      -2.64844117
C        9.00716376      -6.30939782      -3.56158501
C        9.99526490      -7.13569626      -4.14634515
C        9.86730201      -8.36736438      -3.54659459
Br      10.93055356      -9.85459578      -3.91726852
O        8.85143780      -8.35570240      -2.64094535
H        2.24804724      -0.42794238       3.44653975
H        3.54971985      -2.63445630       4.40822428
H        3.78811326      -4.73442573       0.59050172
H        3.01120940      -7.76945469       2.56609151
H        4.11889935      -9.91468378       2.00602838
H        5.88061619      -9.95557408       0.25770495
H        7.19838111      -8.74188589      -1.26619366
H        8.79687847      -5.26882315      -3.77245613
H       10.71153253      -6.86062156      -4.90814473
C       -0.00445707       0.01189536      -1.78238275
H       -0.66409135       0.67374010      -2.43557963
H        0.65740317      -0.63156657      -2.45157240
C       -0.90989263      -0.90692880      -0.91072765
C        0.90977584       0.90977584      -0.90977584
C       -0.00465871       1.77757030       0.00794375
H       -0.66225468       2.44313916      -0.64384735
H        0.64322798       2.43503045       0.67728295
C       -1.78241447       0.00034974      -0.00472694
H       -2.45427497      -0.65498947       0.64260836
H       -2.43311707       0.67328779      -0.65473579
C       -0.91132561       0.90220522       0.91563759
C       -0.01476271      -0.02253852       1.78660255
H       -0.67934791      -0.69751639       2.42135241
H        0.63392994       0.61504881       2.47327442
C        0.01484550      -1.77751727      -0.01636693
H        0.67870853      -2.42144646      -0.68295456
H       -0.62264859      -2.45592969       0.64226336
C        1.78714474       0.01002794       0.00389507
H        2.44202412       0.67113390       0.66197326
H        2.45385902      -0.65136977      -0.64189061
C        0.91606151      -0.90478549       0.90901405
