161
Properties=species:S:1:pos:R:3 pbc="F F F"
C        0.00000000       0.00000000       0.00000000
O        1.20206739       7.52784318      -5.06535893
C        2.40243088       7.78491943      -5.09222588
C        3.38025970       6.96610363      -4.27063878
C        3.88139039       5.76501253      -5.06900482
C        4.85039277       4.89383020      -4.27217141
C        4.21982857       4.24037398      -3.05184882
O        4.57735021       4.56843384      -1.92551195
N        3.26187592       3.29934060      -3.37898321
C        2.49552194       2.51005508      -2.49609732
C        2.65115033       2.51255878      -1.10820836
C        1.84624240       1.69936442      -0.30103886
C        0.88127497       0.88127497      -0.88127497
C        0.71625965       0.86446248      -2.26287743
C        1.52421705       1.67511223      -3.06635797
N        3.02229081       8.74751602      -5.86835889
C        2.39789552       9.72448688      -6.67177874
C        1.02055032       9.95937076      -6.67994272
C        0.47364395      10.96188895      -7.48942808
C        1.30433139      11.73105086      -8.29813428
C        2.67942704      11.51242770      -8.29946267
C        3.22316430      10.51446420      -7.48392896
H        2.85920846       6.64802239      -3.35819659
H        4.21641984       7.59873587      -3.95195950
H        4.39216090       6.11858402      -5.97344830
H        3.02620936       5.17206826      -5.41467109
H        5.70739830       5.49115554      -3.93888093
H        5.25086333       4.09993073      -4.91355938
H        3.06275559       3.17249918      -4.36319588
H        3.39344783       3.13412818      -0.61721339
H        1.98428310       1.71768952       0.77721129
H       -0.03641171       0.23025345      -2.72400789
H        1.37357239       1.64866223      -4.14260906
H        4.03449665       8.74187833      -5.88181954
H        0.34086395       9.39027498      -6.05293045
H       -0.60002311      11.13068473      -7.47338762
H        3.33374392      12.10901759      -8.92923945
H        4.29932253      10.36251896      -7.50138295
C        0.74056900      12.75954430      -9.13358219
C        0.26841800      13.62090756      -9.83326982
Br      -0.49501024      15.01365909     -10.96460553
O       -2.31883164      -8.24221143      -3.23422643
C       -3.49503388      -8.20034704      -3.58419528
C       -4.32301228      -6.95248135      -3.34150848
C       -4.20505281      -5.98972535      -4.52062959
C       -5.00217880      -4.70395621      -4.31025937
C       -4.50478644      -3.86246675      -3.14479818
O       -5.20643638      -3.71506957      -2.14979004
N       -3.24603488      -3.33392030      -3.36024456
C       -2.50006569      -2.50902291      -2.49258574
C       -2.97420996      -2.02721414      -1.27049337
C       -2.16717207      -1.21398555      -0.46548806
C       -0.88127497      -0.88127497      -0.88127497
C       -0.39541967      -1.35018586      -2.09799403
C       -1.20531110      -2.15916815      -2.90120800
N       -4.18804202      -9.18456430      -4.26555941
C       -3.73915728     -10.48725798      -4.56774587
C       -2.55090332     -11.03332865      -4.07563183
C       -2.17979889     -12.34291673      -4.40224535
C       -2.99590836     -13.11015307      -5.22745511
C       -4.18507641     -12.58257432      -5.72366668
C       -4.55618558     -11.27596653      -5.38940537
H       -3.96060631      -6.49133639      -2.41348474
H       -5.36882869      -7.23021000      -3.16807652
H       -4.57137627      -6.48326117      -5.42955578
H       -3.14816051      -5.76158477      -4.70320343
H       -6.05920455      -4.93966207      -4.13856815
H       -4.96055055      -4.08770839      -5.21609450
H       -2.78819496      -3.58215491      -4.22810078
H       -3.97152821      -2.26167517      -0.91158602
H       -2.55650799      -0.85059339       0.48234004
H        0.60835741      -1.09699742      -2.42920962
H       -0.80228661      -2.51747585      -3.84508123
H       -5.11042843      -8.94251618      -4.60524991
H       -1.89428353     -10.47193375      -3.41785211
H       -1.25426525     -12.74827054      -4.00151345
H       -4.82664856     -13.17609625      -6.36925615
H       -5.48909209     -10.88591325      -5.78821910
C       -2.61153906     -14.45591941      -5.56623703
C       -2.28962977     -15.58299872      -5.84996689
Br      -1.76912967     -17.40539064      -6.30873407
O       -6.74969076       0.93504568       6.11053307
C       -6.57354566       1.98674998       6.71928055
C       -5.33017085       2.81889209       6.46793917
C       -5.56754524       3.81362982       5.33423269
C       -4.33248104       4.65776674       5.02614659
C       -3.15247171       3.84651672       4.51306294
O       -2.13644128       3.74281601       5.19203871
N       -3.38136391       3.29002208       3.26881374
C       -2.50063601       2.49228980       2.50874853
C       -1.18884767       2.19692107       2.88614873
C       -0.37924618       1.39324602       2.07415349
C       -0.88127497       0.88127497       0.88127497
C       -2.18497410       1.16939102       0.48923443
C       -2.98966490       1.97530361       1.30071874
N       -7.44521281       2.57540764       7.61754528
C       -8.63876356       2.02533137       8.13006620
C       -9.04389553       0.70640652       7.90956176
C      -10.23288158       0.22348629       8.46859311
C      -11.02394881       1.06169050       9.24787722
C      -10.63320261       2.37772242       9.48039238
C       -9.44083706       2.85475094       8.92596947
H       -4.51331040       2.12668559       6.22543144
H       -5.04036243       3.33851825       7.38823452
H       -6.39066333       4.48552446       5.60800543
H       -5.89915439       3.27570776       4.43808656
H       -4.01320379       5.20024161       5.92398936
H       -4.57763884       5.41478807       4.27192652
H       -4.29300134       3.44725404       2.85819526
H       -0.75916951       2.57848472       3.80713517
H        0.63873809       1.17567889       2.38782054
H       -2.58564390       0.77183660      -0.43963088
H       -4.00620843       2.18256045       0.97607481
H       -7.21805441       3.51159900       7.92854110
H       -8.44752788       0.01736185       7.31917966
H      -10.52357939      -0.80835030       8.28882015
H      -11.24674507       3.03785654      10.08739935
H       -9.15616988       3.88536585       9.12168871
C      -12.24895901       0.56536251       9.81937398
C      -13.27490505       0.14968782      10.29800251
Br     -14.93377303      -0.52242301      11.07190436
O        7.25524288      -1.06244375       5.47758288
C        7.04387760      -2.02287533       6.21282327
C        5.70412599      -2.73388511       6.17899101
C        5.71557903      -3.85607095       5.14375776
C        4.37661276      -4.58547824       5.05430338
C        3.23348621      -3.70410892       4.57445624
O        2.31365839      -3.42247273       5.33516487
N        3.37802275      -3.30217627       3.26000072
C        2.50235556      -2.49157830       2.50774048
C        1.27582010      -2.01770293       2.97839444
C        0.46536816      -1.21419964       2.16707788
C        0.88127497      -0.88127497       0.88127497
C        2.09891731      -1.34853729       0.39614496
C        2.90423483      -2.15376356       1.20768886
N        7.94650244      -2.61201823       7.07964505
C        9.23778947      -2.14861310       7.40775856
C        9.74481636      -0.91065732       7.00439012
C       11.03005688      -0.50855901       7.38634509
C       11.81515859      -1.34741068       8.17094727
C       11.32396738      -2.58289922       8.58445081
C       10.03647539      -2.97834236       8.20673972
H        4.93813619      -1.98341878       5.94387248
H        5.46733993      -3.12473633       7.17503895
H        6.49321047      -4.58404149       5.40694125
H        5.99817516      -3.44933454       4.16543901
H        4.10594841      -4.99790657       6.03357978
H        4.46107623      -5.43583909       4.36743811
H        4.21884340      -3.59868452       2.78092273
H        0.91445630      -2.25655011       3.97378299
H       -0.48532236      -0.85591850       2.55416520
H        2.43230909      -1.09146312      -0.60592259
H        3.85331348      -2.50277667       0.80875354
H        7.66335458      -3.48208563       7.51275431
H        9.15828656      -0.22204138       6.40374145
H       11.39995998       0.46210254       7.06619180
H       11.93217592      -3.24316707       9.19665798
H        9.67441259      -3.94688009       8.54193176
C       13.13872613      -0.93478282       8.56018654
C       14.24721395      -0.58920699       8.88617443
Br      16.03954499      -0.03044011       9.41326928
