153
Properties=species:S:1:pos:R:3 pbc="F F F"
C        0.00000000       0.00000000       0.00000000
O        1.20206739       7.52784318      -5.06535893
C        2.40243088       7.78491943      -5.09222588
C        3.38025970       6.96610363      -4.27063878
C        3.88139039       5.76501253      -5.06900482
C        4.85039277       4.89383020      -4.27217141
C        4.21982857       4.24037398      -3.05184882
O        4.57735021       4.56843384      -1.92551195
N        3.26187592       3.29934060      -3.37898321
C        2.49552194       2.51005508      -2.49609732
C        2.65115033       2.51255878      -1.10820836
C        1.84624240       1.69936442      -0.30103886
C        0.88127497       0.88127497      -0.88127497
C        0.71625965       0.86446248      -2.26287743
C        1.52421705       1.67511223      -3.06635797
N        3.02229081       8.74751602      -5.86835889
C        2.39789552       9.72448688      -6.67177874
C        1.02055032       9.95937076      -6.67994272
C        0.47364395      10.96188895      -7.48942808
C        1.30433139      11.73105086      -8.29813428
Br       0.56449494      13.08076299      -9.39450897
C        2.67942704      11.51242770      -8.29946267
C        3.22316430      10.51446420      -7.48392896
H        2.85920846       6.64802239      -3.35819659
H        4.21641984       7.59873587      -3.95195950
H        4.39216090       6.11858402      -5.97344830
H        3.02620936       5.17206826      -5.41467109
H        5.70739830       5.49115554      -3.93888093
H        5.25086333       4.09993073      -4.91355938
H        3.06275559       3.17249918      -4.36319588
H        3.39344783       3.13412818      -0.61721339
H        1.98428310       1.71768952       0.77721129
H       -0.03641171       0.23025345      -2.72400789
H        1.37357239       1.64866223      -4.14260906
H        4.03449665       8.74187833      -5.88181954
H        0.34086395       9.39027498      -6.05293045
H       -0.60002311      11.13068473      -7.47338762
H        3.33374392      12.10901759      -8.92923945
H        4.29932253      10.36251896      -7.50138295
O       -2.34701308      -8.24717123      -3.20108519
C       -3.52098665      -8.20070039      -3.55788915
C       -4.34328073      -6.94688114      -3.32684025
C       -4.21332133      -5.99144330      -4.51064311
C       -5.00437024      -4.70007591      -4.31194822
C       -4.50877811      -3.85484169      -3.14843157
O       -5.21513963      -3.69793333      -2.15822304
N       -3.24589049      -3.33455957      -3.35974968
C       -2.50015786      -2.50898058      -2.49253590
C       -2.97841037      -2.01766636      -1.27584074
C       -2.17132631      -1.20444939      -0.47086998
C       -0.88127497      -0.88127497      -0.88127497
C       -0.39126932      -1.35972698      -2.09260326
C       -1.20119297      -2.16867176      -2.89582251
N       -4.21569692      -9.18484304      -4.23762576
C       -3.77246021     -10.49170387      -4.52999705
C       -2.59006433     -11.04163343      -4.02816604
C       -2.22450768     -12.35509096      -4.34536234
C       -3.04029154     -13.12237998      -5.17084501
Br      -2.54333479     -14.89371911      -5.60271301
C       -4.22368251     -12.59095969      -5.67667521
C       -4.58930341     -11.28043934      -5.35181472
H       -3.98348157      -6.48255963      -2.39938625
H       -5.39159505      -7.21777984      -3.15774031
H       -4.57732670      -6.48802539      -5.41884113
H       -3.15415913      -5.77024441      -4.68854517
H       -6.06364759      -4.92890028      -4.14488689
H       -4.95421530      -4.08917237      -5.22096577
H       -2.78460899      -3.59022447      -4.22361718
H       -3.97902166      -2.24452726      -0.92124049
H       -2.56390565      -0.83356394       0.47270825
H        0.61575106      -1.11401968      -2.41958100
H       -0.79491902      -2.53452719      -3.83539747
H       -5.13479475      -8.93955586      -4.58384391
H       -1.93398634     -10.48022902      -3.36985403
H       -1.30352200     -12.76335314      -3.93717410
H       -4.86496209     -13.18450572      -6.32253315
H       -5.51775848     -10.88742521      -5.75804075
O       -7.01346226       0.98402364       5.79778360
C       -6.81677388       1.99203836       6.47076395
C       -5.52056736       2.76750341       6.32893134
C       -5.64491689       3.83048239       5.24000847
C       -4.35331294       4.62126995       5.04181149
C       -3.19045848       3.77477414       4.54681875
O       -2.21930412       3.58156474       5.27042713
N       -3.37996248       3.29605117       3.26418609
C       -2.50150307       2.49189678       2.50827449
C       -1.22893533       2.10702816       2.93595398
C       -0.41890028       1.30345944       2.12428597
C       -0.88127497       0.88127497       0.88127497
C       -2.14535621       1.25922472       0.43901863
C       -2.95035180       2.06478533       1.25055012
N       -7.70440077       2.58011897       7.35364598
C       -8.95057716       2.06983869       7.77374529
C       -9.41032699       0.78781314       7.46172367
C      -10.65102151       0.34186865       7.93207081
C      -11.43903281       1.18054626       8.71393747
Br     -13.11615188       0.57949613       9.34411889
C      -10.99442682       2.45984881       9.03704178
C       -9.75091379       2.89949873       8.57114495
H       -4.72837915       2.04548037       6.09156792
H       -5.25468492       3.22278724       7.28964304
H       -6.44607870       4.53098442       5.50713010
H       -5.95472876       3.35797561       4.30024434
H       -4.05565683       5.09889688       5.98288106
H       -4.51814862       5.42814400       4.31806083
H       -4.25878384       3.52322675       2.81644006
H       -0.83069372       2.41703237       3.89706331
H        0.56812052       1.01533856       2.47754330
H       -2.51506450       0.93210936      -0.52932424
H       -3.93587112       2.34310990       0.88586267
H       -7.44666184       3.48546023       7.72607245
H       -8.81903830       0.09871930       6.86631179
H      -10.98412866      -0.66214757       7.68206814
H      -11.60522517       3.12018859       9.64658719
H       -9.42474573       3.90180469       8.83667401
O        7.36884087      -1.11298316       5.31344548
C        7.15227650      -2.04798000       6.07931969
C        5.79405993      -2.72359873       6.09934345
C        5.74867309      -3.87223589       5.09449876
C        4.38927746      -4.56770699       5.05940993
C        3.25705512      -3.66890448       4.58609177
O        2.36550571      -3.34311560       5.36267468
N        3.37684377      -3.30529863       3.25805734
C        2.50277966      -2.49144574       2.50744894
C        1.30199010      -1.97290498       2.99702239
C        0.49133435      -1.16941935       2.18589199
C        0.88127497      -0.88127497       0.88127497
C        2.07296303      -1.39334629       0.37729024
C        2.87844919      -2.19841068       1.18882737
N        8.06209862      -2.63827198       6.93779512
C        9.37330286      -2.20113764       7.21972064
C        9.90140381      -0.98807317       6.77038682
C       11.20640898      -0.61064120       7.10791079
C       11.99009937      -1.44946851       7.89394866
Br      13.75356030      -0.94144311       8.34476349
C       11.47815792      -2.66022671       8.35293278
C       10.17118926      -3.03083764       8.01953058
H        5.04184279      -1.95931416       5.86427049
H        5.57387130      -3.08194890       7.11129500
H        6.51385831      -4.61362124       5.35671367
H        6.01552654      -3.49877376       4.09864840
H        4.13422504      -4.94715080       6.05605893
H        4.43322307      -5.43759704       4.39353333
H        4.19657480      -3.63651448       2.76536137
H        0.96124620      -2.17604717       4.00749603
H       -0.43904006      -0.77593215       2.58786925
H        2.38605006      -1.17141653      -0.63961697
H        3.80713751      -2.58290141       0.77480477
H        7.76808372      -3.48890870       7.40120210
H        9.31715213      -0.29989540       6.16702184
H       11.59275157       0.34114091       6.75243857
H       12.08511922      -3.32035438       8.96652737
H        9.79313835      -3.98031563       8.38977046
