189
Properties=species:S:1:pos:R:3 pbc="F F F"
C        0.00000000       0.00000000       0.00000000
C        0.88271656       0.88271656      -0.88271656
C        0.89373367       2.26268567      -0.68504825
C        1.70877368       3.06936207      -1.47938724
C        2.50097198       2.49266582      -2.47394917
C        2.47230666       1.10732077      -2.68463184
C        1.67039261       0.29631736      -1.87345956
C        3.33434240       0.54295197      -3.75633300
O        4.35394303       1.12732007      -4.09963812
N        2.90823633      -0.63619283      -4.33512925
C        3.65929855      -1.25323165      -5.41557256
C        4.96495093      -1.89690635      -4.91346042
N        5.69057425      -2.64836310      -5.95540931
C        6.37664307      -1.75291615      -6.92346985
C        7.65710748      -1.05409602      -6.40999773
N        8.56777812      -2.00159744      -5.75769824
C        7.91293787      -2.82343628      -4.73663853
C        6.69571739      -3.54894771      -5.34262025
C        9.93931196      -1.82247395      -5.93000697
O       10.40556843      -0.90139405      -6.59531759
C       10.91278417      -2.76110740      -5.31242284
C       10.73160794      -4.15016955      -5.32919557
C       11.67856858      -4.98930838      -4.73634654
C       12.83823376      -4.44880049      -4.18063310
C       13.05120015      -3.07125493      -4.22761300
Br      14.65712366      -2.34926862      -3.54043374
C       12.09533052      -2.22522396      -4.78745519
H        0.28032124       2.71844289       0.08828713
H        1.73126537       4.14493360      -1.32333531
H        3.13938154       3.12534122      -3.08774317
H        1.67419933      -0.78374962      -1.98555085
H        1.98514707      -0.99549368      -4.13591943
H        3.85607204      -0.48531826      -6.16983568
H        3.00764512      -2.01481524      -5.86074927
H        4.67879054      -2.59273013      -4.11257748
H        5.60298030      -1.14285723      -4.44126281
H        5.68575926      -1.00196552      -7.32272012
H        6.65716209      -2.37184197      -7.78608024
H        8.15329626      -0.55549589      -7.24999711
H        7.40809465      -0.28081750      -5.67401743
H        8.58639082      -3.54436146      -4.27562909
H        7.60479102      -2.15134828      -3.92770760
H        7.04951265      -4.23492080      -6.12453490
H        6.22223453      -4.18453155      -4.58504361
H        9.86006332      -4.58919508      -5.80699601
H       11.51996054      -6.06482873      -4.72041305
H       13.57785889      -5.10796469      -3.73328010
H       12.26823754      -1.15169742      -4.83297839
C       -0.88271656      -0.88271656      -0.88271656
C       -0.56509305      -2.23028194      -1.04609260
C       -1.37652700      -3.04157624      -1.83941976
C       -2.49573943      -2.49855206      -2.47329547
C       -2.80107939      -1.13877697      -2.32440290
C       -1.99862837      -0.33012945      -1.51141170
C       -4.00356126      -0.60973621      -3.02032990
O       -4.93793467      -1.35377073      -3.28919581
N       -3.98561815       0.73060693      -3.35216153
C       -5.09598222       1.33956320      -4.06522044
C       -6.33188994       1.51374326      -3.16335832
N       -7.43539844       2.24857080      -3.81079281
C       -8.15139239       1.42121508      -4.81701946
C       -9.09056907       0.32998814      -4.25242826
N       -9.97569557       0.86218173      -3.21036508
C       -9.26089014       1.60129151      -2.16654148
C       -8.41052171       2.72020960      -2.79907781
C      -11.28070447       0.37707976      -3.14322026
O      -11.70633397      -0.47925462      -3.91390338
C      -12.23230517       0.89182631      -2.12362075
C      -12.34463241       2.25507613      -1.82107767
C      -13.25746976       2.68748100      -0.85561799
C      -14.10346008       1.76832818      -0.23493448
C      -14.03979805       0.42067054      -0.58843070
Br     -15.23771778      -0.81054118       0.19997017
C      -13.10871779      -0.02261468      -1.52622928
H        0.30420957      -2.66011535      -0.55457122
H       -1.14160782      -4.09584320      -1.96208326
H       -3.12901410      -3.13648981      -3.08696202
H       -2.24809133       0.71282906      -1.34073829
H       -3.13405585       1.26612901      -3.25764598
H       -5.32029890       0.71480526      -4.93509582
H       -4.74662988       2.31577445      -4.42272372
H       -5.99663445       2.08378620      -2.28578964
H       -6.66297115       0.54270288      -2.78111761
H       -7.44900013       0.96785326      -5.52536700
H       -8.76151093       2.10834701      -5.41823644
H       -9.67410120      -0.09933201      -5.07436428
H       -8.51154912      -0.48569038      -3.80405507
H       -9.92498297       2.01829065      -1.41096612
H       -8.62766527       0.88173969      -1.63522477
H       -9.08280609       3.43579732      -3.29211799
H       -7.89706811       3.28984801      -2.01552649
H      -11.73079499       2.98898789      -2.33605714
H      -13.31972292       3.74188065      -0.59770258
H      -14.82119685       2.11276445       0.50525811
H      -13.06794660      -1.07283035      -1.80874155
C       -0.88271656       0.88271656       0.88271656
C       -0.90836378       0.67247267       2.26063114
C       -1.70183131       1.48535469       3.07033700
C       -2.47322867       2.49779645       2.49656185
C       -2.46186811       2.69360449       1.10878667
C       -1.64945181       1.89145961       0.29925810
C       -3.30105603       3.78494493       0.54762641
O       -3.59001835       4.75628393       1.23459893
N       -3.73704640       3.62270998      -0.75258362
C       -4.59160310       4.61419266      -1.38415630
C       -3.81870926       5.89873399      -1.73593825
N       -4.61765933       6.87765349      -2.49769237
C       -5.61283504       7.58001540      -1.64565367
C       -5.04670346       8.65381957      -0.68751384
N       -4.13269031       9.56996133      -1.37877272
C       -3.09317295       8.87955806      -2.14659089
C       -3.73679421       7.88601828      -3.13342257
C       -4.14145591      10.91366311      -1.00827405
O       -4.87494187      11.34927161      -0.12472150
C       -3.25417433      11.89552489      -1.68559961
C       -3.07359617      11.91178353      -3.07474574
C       -2.23002474      12.85802000      -3.66243799
C       -1.61389872      13.82872126      -2.87255361
C       -1.85059614      13.85530271      -1.49834063
Br      -1.07367370      15.21634348      -0.44172839
C       -2.66422480      12.89413939      -0.90080243
H       -0.30937208      -0.11325833       2.71436325
H       -1.71797099       1.33476275       4.14680054
H       -3.08665895       3.13306187       3.13274512
H       -1.58600920       2.06135634      -0.77136497
H       -3.61164378       2.73783361      -1.22390457
H       -5.42457936       4.82159573      -0.70558563
H       -4.99462292       4.15280516      -2.29384892
H       -2.96394338       5.58660659      -2.35191208
H       -3.38994159       6.34352183      -0.83207754
H       -6.21791064       6.86529940      -1.07669618
H       -6.31873997       8.07697734      -2.32431695
H       -5.87937689       9.20458725      -0.23616665
H       -4.48491495       8.18669149       0.12968814
H       -2.43491162       9.56324865      -2.68050183
H       -2.45202686       8.35686289      -1.42773940
H       -4.34304568       8.45092946      -3.85484838
H       -2.95970018       7.38941633      -3.72636992
H       -3.59021071      11.19636566      -3.70871213
H       -2.06445140      12.84807366      -4.73698020
H       -0.96976716      14.57080233      -3.33739519
H       -2.85644278      12.92306348       0.17001225
C        0.88271656      -0.88271656       0.88271656
C        2.25040726      -0.96542440       0.62563593
C        3.06079382      -1.75880169       1.43792749
C        2.49741973      -2.47321504       2.49695219
C        1.11886153      -2.40492290       2.74047484
C        0.30970029      -1.59225288       1.93821636
C        0.56857306      -3.18474691       3.88030740
O        1.27968864      -3.46429914       4.83691343
N       -0.75105412      -3.57888414       3.77934274
C       -1.37580841      -4.37499514       4.82245273
C       -1.65381479      -3.54559709       6.08972270
N       -2.40710197      -4.28190781       7.12281461
C       -1.56545813      -5.28212018       7.83053471
C       -0.55001160      -4.71387829       8.84914250
N       -1.17545336      -3.74411903       9.75521324
C       -1.93100538      -2.70224578       9.05489970
C       -2.97490970      -3.34404579       8.12025384
C       -0.75719805      -3.71941901      11.08462401
O        0.11540720      -4.46870747      11.51537730
C       -1.36728224      -2.77457013      12.05681171
C       -2.74779610      -2.54348246      12.11494759
C       -3.27117015      -1.64676758      13.05000932
C       -2.42574807      -1.02611127      13.96970318
C       -1.06055741      -1.31121492      13.95690070
Br       0.07095849      -0.52599249      15.25133781
C       -0.52684525      -2.17890065      13.00550635
H        2.69606819      -0.41096179      -0.19655299
H        4.12989921      -1.81904757       1.25058750
H        3.13436292      -3.08670600       3.13139702
H       -0.75122602      -1.48430175       2.14292483
H       -1.24936822      -3.46746023       2.90748082
H       -0.71963633      -5.22419960       5.03602619
H       -2.31506539      -4.76073444       4.40791011
H       -2.25049167      -2.68054145       5.76858811
H       -0.72008443      -3.13451035       6.48695995
H       -1.04412072      -5.93189343       7.11874115
H       -2.24992243      -5.94530286       8.37601994
H       -0.10836509      -5.54260573       9.41355684
H        0.26887101      -4.19859397       8.33382959
H       -2.41660710      -2.00170099       9.73256455
H       -1.20959010      -2.10608871       8.48465173
H       -3.69615511      -3.90378779       8.73149408
H       -3.55795890      -2.56382569       7.61687981
H       -3.42480836      -3.06148581      11.44118678
H       -4.33894604      -1.44294144      13.07154945
H       -2.84075117      -0.34013771      14.70378776
H        0.53696449      -2.40854174      13.00401227
