186
Properties=species:S:1:pos:R:3 pbc="F F F"
C        1.79181331       1.79181331      -1.79181331
C        3.03394707       2.22096710      -1.32044890
C        3.83913607       3.03404489      -2.12180363
C        3.38057134       3.42525850      -3.38323449
C        2.14913806       2.96696636      -3.86815096
C        1.34883863       2.15473566      -3.06393486
S        4.39228205       4.46916401      -4.41513571
O        5.77520952       4.23258664      -4.06192157
O        3.92945866       4.30349389      -5.77764929
N        3.97674045       6.04630489      -3.92551496
C        4.52958894       6.49389077      -2.61487662
C        4.32867799       8.00701555      -2.45187695
N        2.88054215       8.38105623      -2.54029792
C        2.31574671       7.93121839      -3.85335778
C        2.54694891       6.43397474      -4.12550918
S        1.97814547       8.02523906      -1.13864442
O        1.59181126       6.63227889      -1.20635190
O        2.69929685       8.54337681       0.00270215
C        0.52245437       9.01939211      -1.33385972
C        0.65596853      10.41015415      -1.39844290
C       -0.48452985      11.20361028      -1.53080603
C       -1.74293828      10.60220935      -1.59210767
Br      -3.28689936      11.67952093      -1.76389742
C       -1.87461345       9.21392714      -1.52213055
C       -0.73717918       8.41516324      -1.39085194
H        3.38161475       1.92676351      -0.33310070
H        4.81081514       3.35773044      -1.75632583
H        1.80531251       3.24071052      -4.86355208
H        0.38745656       1.80965562      -3.43632195
H        5.60575196       6.29534218      -2.58038632
H        4.05315084       5.94823668      -1.79626491
H        4.75713564       8.35607626      -1.50704277
H        4.86256176       8.54450012      -3.24633914
H        1.24833942       8.16601007      -3.91267491
H        2.80171346       8.52412309      -4.63879782
H        1.90508707       5.83291183      -3.47798921
H        2.25573848       6.23171479      -5.16203938
H        1.63833507      10.87425596      -1.33763850
H       -0.38397476      12.28527551      -1.57693681
H       -2.85658657       8.74820242      -1.55976588
H       -0.84409989       7.33473073      -1.32136586
C       -1.79181331      -1.79181331      -1.79181331
C       -3.13505712      -1.97965184      -1.46065412
C       -3.94193164      -2.79199558      -2.26105738
C       -3.38694146      -3.42476553      -3.37735733
C       -2.04803808      -3.20901367      -3.72720364
C       -1.24645563      -2.39643273      -2.92462079
S       -4.40086022      -4.47106243      -4.40465912
O       -5.76661502      -4.00588837      -4.29721435
O       -3.74481411      -4.57383002      -5.69195771
N       -4.29450556      -5.99723476      -3.65681997
C       -5.07439299      -6.16681254      -2.39715081
C       -5.12618854      -7.65137282      -2.01000912
N       -3.75170139      -8.21995801      -1.83023690
C       -2.95945174      -8.05009428      -3.09077686
C       -2.92550375      -6.59355719      -3.58737188
S       -2.99653083      -7.77816845      -0.36732966
O       -2.39971079      -6.47358033      -0.55715094
O       -3.92989870      -8.02040077       0.71032796
C       -1.69393426      -8.97150768      -0.21026426
C       -2.02541668     -10.32677618      -0.11237272
C       -1.00973550     -11.27290472       0.03275377
C        0.32190717     -10.85674418       0.08345828
Br       1.69545618     -12.13956229       0.28758712
C        0.65051164      -9.50285548      -0.00910040
C       -0.36122751      -8.55208761      -0.15552088
H       -3.56022901      -1.49760458      -0.58364537
H       -4.99047368      -2.92763801      -2.00675972
H       -1.62250662      -3.67172022      -4.61534827
H       -0.20388836      -2.23952008      -3.19002569
H       -6.10369368      -5.82679594      -2.55099083
H       -4.63214487      -5.57110782      -1.59439975
H       -5.72168778      -7.79559264      -1.10297425
H       -5.62665332      -8.22795457      -2.79879314
H       -1.94094408      -8.42822025      -2.95786007
H       -3.42246371      -8.68587700      -3.85629365
H       -2.29051206      -5.99082821      -2.93464784
H       -2.47462431      -6.58910008      -4.58576826
H       -3.06583239     -10.64443249      -0.13996466
H       -1.26486027     -12.32677694       0.11339965
H        1.68776619      -9.18007474       0.04092683
H       -0.10309347      -7.49674241      -0.21216081
C       -1.79181331       1.79181331       1.79181331
C       -1.54920424       3.16497853       1.86118030
C       -2.34926272       3.97270703       2.67301485
C       -3.37479119       3.39041529       3.42385784
C       -3.63824371       2.01820131       3.32781037
C       -2.83642661       1.21587063       2.51521190
S       -4.39978479       4.40581489       4.47098209
O       -4.42656532       5.73737279       3.90577962
O       -5.62456945       3.67177478       4.71425761
N       -3.54236514       4.46514923       5.94104592
C       -2.33543741       5.34072074       5.96219818
C       -1.85148305       5.52935230       7.40673513
N       -1.53116913       4.21665458       8.05407260
C       -2.73806417       3.32870324       8.03355547
C       -3.33029495       3.15234066       6.62379722
S       -0.05024683       3.53371654       7.55806557
O       -0.28494867       2.82989690       6.31559650
O        0.96922738       4.55478855       7.65441034
C        0.28533847       2.33739905       8.82364562
C        0.45180991       2.77466114      10.14171435
C        0.73709921       1.84457866      11.14240700
C        0.85772970       0.49239302      10.81671542
Br       1.25159620      -0.76460577      12.17272096
C        0.69644511       0.05846534       9.49942400
C        0.40984065       0.98419187       8.49448477
H       -0.74165981       3.61277648       1.28704267
H       -2.16482561       5.04349853       2.71654727
H       -4.45817723       1.56783817       3.88355970
H       -3.03382853       0.14867414       2.45093146
H       -2.58849284       6.32879562       5.56419199
H       -1.54516077       4.91199776       5.34049391
H       -0.98341785       6.19521781       7.44161901
H       -2.63351385       6.01553583       8.00435135
H       -2.50399063       2.35275098       8.47028279
H       -3.49007053       3.78363624       8.69092759
H       -2.67543145       2.52097296       6.01958371
H       -4.29033268       2.63441695       6.72474303
H        0.36900449       3.83140188      10.38783214
H        0.87124640       2.18228541      12.16719856
H        0.80098061      -0.99395994       9.24632228
H        0.29969716       0.64504202       7.46665184
C        1.79181331      -1.79181331       1.79181331
C        1.75977877      -1.63663472       3.17894959
C        2.57108964      -2.43647030       3.98742465
C        3.42268800      -3.37278321       3.39359312
C        3.42947003      -3.55043563       2.00434973
C        2.61694771      -2.74925264       1.20130879
S        4.47031575      -4.39577159       4.41049443
O        3.82669846      -4.54544605       5.69757323
O        4.83900192      -5.55194545       3.61965447
N        5.87400579      -3.45470714       4.61984737
C        5.76107042      -2.30928357       5.56800235
C        7.15600337      -1.75027404       5.88129307
N        7.86085425      -1.30442975       4.63661229
C        7.97518708      -2.44896343       3.67617237
C        6.62128393      -3.11445990       3.37068899
S        7.31135226       0.18479483       4.01547151
O        6.13311004      -0.07942522       3.21790680
O        7.27667047       1.13858083       5.10188187
C        8.62368369       0.67646639       2.92848890
C        9.89823989       0.89503364       3.46135933
C       10.93359935       1.30261127       2.61889837
C       10.68506222       1.49190994       1.25822646
Br      12.08735650       2.05123566       0.12039815
C        9.41073080       1.27833606       0.72904950
C        8.37149903       0.86947336       1.56681033
H        1.10689621      -0.89757380       3.63700894
H        2.53590655      -2.32084610       5.06811876
H        4.06501743      -4.30280461       1.54175307
H        2.63210196      -2.87931151       0.12202065
H        5.32019646      -2.65124713       6.51003687
H        5.11627000      -1.53245110       5.14893133
H        7.09212747      -0.92761281       6.60051440
H        7.77270945      -2.52418382       6.35650775
H        8.45512603      -2.12430542       2.74759294
H        8.65135594      -3.18720466       4.12607376
H        6.01540631      -2.45801042       2.74257138
H        6.81734117      -4.03007427       2.80207722
H       10.08333789       0.75799526       4.52488690
H       11.92438868       1.47739277       3.03124166
H        9.21697438       1.43629729      -0.32929536
H        7.37618421       0.71850379       1.15431627
C       -0.00445707       0.01189536      -1.78238275
H       -0.66409135       0.67374010      -2.43557963
H        0.65740317      -0.63156657      -2.45157240
C       -0.90989263      -0.90692880      -0.91072765
C        0.90977584       0.90977584      -0.90977584
C       -0.00465871       1.77757030       0.00794375
H       -0.66225468       2.44313916      -0.64384735
H        0.64322798       2.43503045       0.67728295
C       -1.78241447       0.00034974      -0.00472694
H       -2.45427497      -0.65498947       0.64260836
H       -2.43311707       0.67328779      -0.65473579
C       -0.91132561       0.90220522       0.91563759
C       -0.01476271      -0.02253852       1.78660255
H       -0.67934791      -0.69751639       2.42135241
H        0.63392994       0.61504881       2.47327442
C        0.01484550      -1.77751727      -0.01636693
H        0.67870853      -2.42144646      -0.68295456
H       -0.62264859      -2.45592969       0.64226336
C        1.78714474       0.01002794       0.00389507
H        2.44202412       0.67113390       0.66197326
H        2.45385902      -0.65136977      -0.64189061
C        0.91606151      -0.90478549       0.90901405
