177
Properties=species:S:1:pos:R:3 pbc="F F F"
C        0.00000000       0.00000000       0.00000000
C        0.88178302       0.88178302      -0.88178302
C        1.54699930       0.32358784      -1.97272296
C        2.35203541       1.12923528      -2.78301601
C        2.52853295       2.48479169      -2.47077058
C        1.82765333       3.04289991      -1.39436000
C        1.00690873       2.24119455      -0.59689871
C        3.36837390       3.37881044      -3.31221758
O        2.90233952       4.48058254      -3.60237466
N        4.62933911       2.96087577      -3.75554709
C        5.43536427       1.92977469      -3.10623798
C        6.46828655       2.50633220      -2.14621106
C        7.57477708       3.25904030      -2.87336965
N        7.26697996       4.66823565      -3.13591566
C        6.08738261       5.00806044      -3.95334184
C        5.34892232       3.85994667      -4.66566430
C        8.18924607       5.61146306      -2.64813462
O        9.14374480       5.29872426      -1.93320956
C        8.13022284       7.04194732      -3.05749712
C        6.97423549       7.82474655      -3.00148512
C        7.01282411       9.15981013      -3.42440592
C        8.21421236       9.72118286      -3.85679928
C        9.38473386       8.96768772      -3.85993674
C        9.34024814       7.63033102      -3.46004902
H        1.43806155      -0.73382893      -2.20517768
H        2.83700335       0.69597723      -3.65292352
H        1.91352689       4.10696622      -1.18040603
H        0.46672905       2.68598173       0.23593361
H        5.91561333       1.33719381      -3.89327058
H        4.81428420       1.24308241      -2.53287286
H        5.99182692       3.14196984      -1.39200329
H        6.92603741       1.66039833      -1.61793715
H        8.47992804       3.17774346      -2.26468093
H        7.82616358       2.78886352      -3.83220565
H        5.38390409       5.51159873      -3.28365361
H        6.40776397       5.72723382      -4.71436868
H        4.61395129       4.30271607      -5.34966792
H        6.03137321       3.26725809      -5.28443663
H        6.04204241       7.42649290      -2.61724181
H        6.10247636       9.75453341      -3.40239598
H       10.33163597       9.40488728      -4.16567550
H       10.25823838       7.04410801      -3.45340475
C        8.24882939      11.09331589      -4.29229051
C        8.27782116      12.24247730      -4.65701442
Br       8.32469839      14.10057411      -5.24674213
C       -0.88178302      -0.88178302      -0.88178302
C       -1.06664335      -2.22406199      -0.55260477
C       -1.87573264      -3.03223428      -1.35631978
C       -2.46047847      -2.50637906      -2.51723769
C       -2.29754556      -1.14849595      -2.81887173
C       -1.50512709      -0.33621345      -2.00366147
C       -3.33585441      -3.32923291      -3.39431459
O       -4.39291184      -2.82245509      -3.76992979
N       -2.96032248      -4.62883496      -3.75660453
C       -1.58477221      -5.12100241      -3.76560233
C       -0.93842395      -5.03962856      -5.14277730
C       -1.55573217      -6.02274444      -6.12871042
N       -2.73623099      -5.50656197      -6.82833831
C       -3.91402993      -5.09051597      -6.04423900
C       -3.92675135      -5.40979389      -4.53798806
C       -2.68880529      -5.52615760      -8.23388087
O       -1.67448727      -5.84138631      -8.85980504
C       -3.90249376      -5.26959282      -9.05758069
C       -4.74492286      -4.16793944      -8.88760485
C       -5.87500575      -4.01975227      -9.70228213
C       -6.13373649      -4.94537701     -10.71308100
C       -5.26823023      -6.01383540     -10.93029269
C       -4.15470812      -6.17330490     -10.10261516
H       -0.59320377      -2.64723682       0.33103029
H       -2.04577500      -4.06692186      -1.07320723
H       -2.79577276      -0.71878414      -3.68634225
H       -1.38660610       0.71724545      -2.24741652
H       -1.59740064      -6.15271048      -3.39596661
H       -0.95527755      -4.55204009      -3.08292182
H       -0.97477059      -4.01710261      -5.53392685
H        0.11936618      -5.30433869      -5.01940038
H       -0.77889695      -6.29412971      -6.84932577
H       -1.84195516      -6.96335277      -5.64192482
H       -4.00084076      -4.00732071      -6.17099496
H       -4.79492943      -5.55826011      -6.49617693
H       -4.92914654      -5.18474674      -4.15244199
H       -3.75480291      -6.47561783      -4.35264720
H       -4.53390418      -3.40635247      -8.14552047
H       -6.54002355      -3.17345599      -9.54592621
H       -5.44437056      -6.72286367     -11.73496451
H       -3.47257365      -7.00390184     -10.27927565
C       -7.29745045      -4.79008524     -11.54690010
C       -8.27206089      -4.66002839     -12.24522359
Br      -9.84792355      -4.44973746     -13.37435362
C       -0.88178302       0.88178302       0.88178302
C       -1.23111877       2.16111806       0.45107327
C       -2.04060905       2.96875459       1.25492306
C       -2.45991192       2.51169702       2.51248628
C       -2.13324815       1.21209942       2.91956567
C       -1.34091207       0.39769494       2.10639499
C       -3.32981147       3.33521670       3.39437375
O       -4.29108609       2.77410882       3.92010182
N       -3.05615501       4.69381379       3.59579317
C       -1.74255613       5.30867500       3.42014582
C       -0.96748246       5.42695951       4.72638785
C       -1.58796913       6.44397688       5.67524102
N       -2.64079724       5.89502896       6.53530506
C       -3.83744193       5.29523463       5.91610833
C       -4.02080207       5.45777186       4.39595937
C       -2.46663885       6.06116923       7.92103568
O       -1.43626251       6.53004852       8.40936760
C       -3.56724033       5.77891703       8.88350992
C       -4.30578455       4.59298267       8.90169993
C       -5.33537300       4.42485877       9.83680839
C       -5.59254315       5.42039562      10.77925573
C       -4.82343545       6.58035223      10.80857064
C       -3.81258965       6.75681377       9.86122477
H       -0.88619445       2.53431813      -0.51110228
H       -2.33987623       3.94941636       0.89661151
H       -2.50355048       0.82850857       3.86884009
H       -1.09439754      -0.61028296       2.43266259
H       -1.89353782       6.29208678       2.96045312
H       -1.12408048       4.73375657       2.73240242
H       -0.86396868       4.45032216       5.21150921
H        0.04221716       5.77389143       4.47269862
H       -0.77970135       6.85719255       6.28545852
H       -2.01151239       7.30013643       5.13558392
H       -3.80206944       4.22707960       6.15000739
H       -4.71591170       5.72341056       6.41004422
H       -5.02641261       5.10367082       4.13625184
H       -3.97546107       6.51060838       4.09699849
H       -4.08780018       3.78277634       8.21520059
H       -5.92278706       3.50956493       9.82705376
H       -4.99579390       7.34803853      11.55836632
H       -3.20476362       7.66018542       9.89080209
C       -6.65296796       5.24408225      11.73738558
C       -7.54107374       5.09641980      12.53981933
Br      -8.97706567       4.85766211      13.83728685
C        0.88178302      -0.88178302       0.88178302
C        1.15293213      -0.49629780       2.19408017
C        1.95707417      -1.30324111       3.00397142
C        2.52900095      -2.47252397       2.48257030
C        2.22116711      -2.86871179       1.17503433
C        1.40058958      -2.07187646       0.37253595
C        3.38221211      -3.36406429       3.31312551
O        3.16152784      -4.57345823       3.25031065
N        4.38200991      -2.82889531       4.13485675
C        5.01407962      -1.52783893       3.92945839
C        6.32919331      -1.62507973       3.16655677
C        7.42194559      -2.30076614       3.98447529
N        7.43426672      -3.76267778       3.87418677
C        6.24029668      -4.52625476       4.28223345
C        5.10894524      -3.76655818       4.99902989
C        8.64307752      -4.34847462       3.45729162
O        9.61033223      -3.68134151       3.08400488
C        8.86702418      -5.81802147       3.54462163
C        7.98156139      -6.77556578       3.04333998
C        8.27110646      -8.13872838       3.18720531
C        9.46414836      -8.53985099       3.78819515
C       10.38132294      -7.59379049       4.23724488
C       10.08102107      -6.23545349       4.11415363
H        0.73622249       0.42435586       2.59754366
H        2.13322917      -1.01613981       4.03653512
H        2.61403059      -3.80493645       0.78193210
H        1.16768051      -2.39027442      -0.64117777
H        5.16203679      -1.06989567       4.91414526
H        4.36690233      -0.85669707       3.36664007
H        6.18915692      -2.13132642       2.20531671
H        6.65417936      -0.59938477       2.95080875
H        8.37977446      -1.88944220       3.65313577
H        7.34988744      -2.04777365       5.04957166
H        5.83508786      -4.97407368       3.36999489
H        6.57356049      -5.33554739       4.94025859
H        4.38855713      -4.50519870       5.37257944
H        5.48187355      -3.22566294       5.87553144
H        7.07499919      -6.48735200       2.52342592
H        7.56389787      -8.87780633       2.81770156
H       11.32731112      -7.89610509       4.67878253
H       10.80332865      -5.49565807       4.45676441
C        9.75679332      -9.94207825       3.93556422
C       10.00188348     -11.11644358       4.05898582
Br      10.39817354     -13.01529299       4.25854810
