177
Properties=species:S:1:pos:R:3 pbc="F F F"
C        0.00000000       0.00000000       0.00000000
C       10.43263514      -2.46461098      -4.54938442
C        9.05326207      -3.04344522      -4.80892989
N        8.02728619      -2.47673412      -3.96038435
C        7.26895418      -1.35950455      -4.19972778
S        7.55173094      -0.27369138      -5.51255146
C        6.52839671       1.14121907      -4.99468370
C        6.79101348       2.36877028      -5.85952253
O        7.69124876       2.43016886      -6.70357876
N        6.03486063       3.49439727      -5.68963377
C        4.97601121       3.63934771      -4.84503612
S        4.28085484       5.19292993      -4.85123671
C        3.11878844       4.64941599      -3.70915342
C        3.33093823       3.31484552      -3.40888755
N        4.42550661       2.75561888      -4.05849463
C        2.49107199       2.50850532      -2.51993333
C        2.74414009       1.13177625      -2.39496627
C        1.94446617       0.32102170      -1.58264763
C        0.88182659       0.88182659      -0.88182659
C        0.61696347       2.24499440      -0.98096981
C        1.41859158       3.05366787      -1.79554541
N        6.34044048      -1.24418506      -3.28319887
N        6.50134334      -2.28043542      -2.39400102
C        7.54240102      -2.99238611      -2.78088300
C        8.06764925      -4.10352014      -2.04890569
C        7.43945734      -4.85109919      -1.06618943
C        8.37186792      -5.81239028      -0.60480705
C        9.52288592      -5.59441044      -1.32277366
Br      11.11373707      -6.54454101      -1.12216641
O        9.34507344      -4.57726447      -2.20472781
H       11.16807951      -2.93186808      -5.21232922
H       10.74960745      -2.63318356      -3.51546609
H       10.45394187      -1.38476427      -4.73001745
H        9.05819333      -4.12901144      -4.66854211
H        8.76113024      -2.88165545      -5.85297085
H        6.76769100       1.39966927      -3.95635767
H        5.48232253       0.83425031      -5.08771588
H        6.28675455       4.28369825      -6.26586278
H        2.35538358       5.32528780      -3.35344727
H        3.57071818       0.67026121      -2.93504069
H        2.16370887      -0.74158404      -1.51104064
H       -0.20879906       2.68901359      -0.43260664
H        1.17967731       4.11199052      -1.84632469
H        6.42271114      -4.70424042      -0.72387893
H        8.22233199      -6.55843390       0.16299765
C       -2.28230872       1.12838932     -11.36348918
C       -1.00215858       0.79972204     -10.61631021
N       -1.15798184       0.82498912      -9.17794371
C       -1.53952521      -0.20842735      -8.36122486
S       -2.11786355      -1.72714852      -8.94557895
C       -2.82908738      -2.41762847      -7.41758365
C       -3.64974819      -3.67121833      -7.69833976
O       -3.91565394      -4.07338066      -8.83596178
N       -4.16965870      -4.39027543      -6.65895754
C       -3.97845990      -4.15011050      -5.33182464
S       -4.80796204      -5.21843616      -4.29862329
C       -4.12049207      -4.40697167      -2.94989411
C       -3.29353765      -3.38283312      -3.37830053
N       -3.24420579      -3.23556332      -4.75985100
C       -2.49541321      -2.52295756      -2.50113987
C       -1.60187367      -1.59922756      -3.06978137
C       -0.79762076      -0.78371905      -2.26679570
C       -0.88182659      -0.88182659      -0.88182659
C       -1.76667673      -1.78189623      -0.29435472
C       -2.56964941      -2.59740850      -1.10074695
N       -1.41885309       0.14533370      -7.10593490
N       -0.98413808       1.44945770      -7.08022856
C       -0.87094543       1.86666280      -8.32661528
C       -0.52516777       3.20542414      -8.69329118
C        0.08266743       4.17395928      -7.91117430
C        0.17776785       5.35113813      -8.69319067
C       -0.38599643       5.04227094      -9.90752366
Br      -0.57298600       6.22085232     -11.33922879
O       -0.79900913       3.74872939      -9.92225704
H       -2.10569883       1.10081020     -12.44365202
H       -2.65303268       2.12486255     -11.10371985
H       -3.07585056       0.40979302     -11.13313751
H       -0.20553293       1.49849957     -10.89069064
H       -0.63638434      -0.19301731     -10.90304399
H       -3.49118732      -1.67384216      -6.95868845
H       -1.99404327      -2.65767084      -6.75257462
H       -4.73588015      -5.18547490      -6.91496052
H       -4.34607835      -4.74022787      -1.94781243
H       -1.51832416      -1.50527846      -4.15241746
H       -0.11297919      -0.08243785      -2.73774843
H       -1.83970992      -1.85966242       0.78655117
H       -3.24695436      -3.28645491      -0.60458324
H        0.40994245       4.03596247      -6.88825458
H        0.59374179       6.30455193      -8.39919415
C        3.24799051       7.25511074       8.51028834
C        3.47877444       7.28749059       7.01003060
N        2.94440221       6.13034258       6.32499606
C        1.67984363       5.96960281       5.81941823
S        0.38922706       7.08309799       6.09672010
C       -1.03114546       6.08191888       5.55123515
C       -2.35540184       6.73678878       5.92711566
O       -2.44259394       7.74164704       6.64075540
N       -3.53135602       6.18477182       5.50276383
C       -3.67070384       5.10319716       4.68649404
S       -5.28460784       4.65271648       4.38769716
C       -4.71703323       3.39305581       3.36726881
C       -3.33391769       3.40829828       3.31245534
N       -2.74698104       4.39047000       4.10216908
C       -2.51447939       2.51530386       2.48972739
C       -1.12465728       2.71526429       2.43096104
C       -0.31144543       1.90562316       1.63106692
C       -0.88182659       0.88182659       0.88182659
C       -2.25487173       0.65702765       0.93102830
C       -3.06626128       1.46967265       1.73187093
N        1.61023749       4.85566779       5.13402398
N        2.83768183       4.24105443       5.21153634
C        3.62191100       4.98893793       5.96387098
C        4.95250801       4.62400592       6.34153689
C        5.77787640       3.68028683       5.75213716
C        6.97877064       3.64082514       6.50223019
C        6.81921105       4.55488037       7.51557982
Br       8.07233233       4.91674821       8.84694659
O        5.60849684       5.16221454       7.41881908
H        3.67637357       8.14823497       8.97667926
H        3.71155002       6.37556441       8.96787559
H        2.17990452       7.22871391       8.75038567
H        4.54780138       7.35950808       6.78601730
H        3.02398728       8.18380743       6.57262549
H       -0.98836784       5.09938045       6.03596964
H       -0.95758962       5.98260836       4.46409074
H       -4.37191470       6.64457591       5.81982496
H       -5.42182908       2.74697191       2.86531765
H       -0.65567924       3.51157116       3.00876967
H        0.75993528       2.08927304       1.60382771
H       -2.70506506      -0.14369148       0.35144760
H       -4.13237166       1.26234681       1.74327405
H        5.52657353       3.08718416       4.88173903
H        7.84242080       3.01425649       6.32906474
C       -0.72588314     -11.48948869       1.75380302
C       -0.37689928     -10.67407269       0.52157334
N       -0.47140048      -9.24619115       0.73614576
C        0.50853638      -8.40440830       1.19623273
S        2.02580129      -8.94943502       1.81535472
C        2.61860712      -7.42639971       2.61929266
C        3.84784607      -7.69004233       3.48141788
O        4.28779813      -8.82037435       3.71682390
N        4.49849686      -6.64518400       4.07521080
C        4.20885308      -5.32217451       3.92936746
S        5.19546008      -4.28239275       4.84716865
C        4.35536709      -2.94005626       4.18193451
C        3.38636868      -3.37441226       3.29389036
N        3.30171680      -4.75744212       3.18046119
C        2.52315711      -2.49997781       2.49637572
C        1.66328697      -3.06720905       1.54038659
C        0.84785433      -2.26469164       0.73558953
C        0.88182659      -0.88182659       0.88182659
C        1.71762121      -0.29640943       1.82889704
C        2.53325978      -1.10227115       2.63227393
N        0.10569043      -7.16093733       1.11282653
N       -1.17899674      -7.17083247       0.62307321
C       -1.53631870      -8.42744466       0.43977195
C       -2.84217603      -8.83433394       0.02087689
C       -3.81765697      -8.06761608      -0.59541152
C       -4.95458362      -8.89326983      -0.77440151
C       -4.61686191     -10.11707071      -0.24895966
Br      -5.73863216     -11.60359386      -0.17359923
O       -3.34230931     -10.09571809       0.21912800
H       -0.64383587     -12.55881756       1.53355896
H       -1.74737011     -11.28803277       2.09122732
H       -0.05182914     -11.26414183       2.58688236
H       -1.02912054     -10.94240468      -0.31556014
H        0.64183032     -10.90281588       0.18779944
H        1.82847393      -7.02833198       3.26691202
H        2.86410427      -6.71613171       1.82405275
H        5.27974093      -6.89218066       4.66439399
H        4.63485517      -1.93571687       4.46354660
H        1.62024532      -4.14814844       1.40762632
H        0.19702981      -2.73422793       0.00190773
H        1.74502471       0.78258523       1.95038169
H        3.17107849      -0.60776134       3.35915269
H       -3.71086616      -7.02651530      -0.87329949
H       -5.90169244      -8.62152014      -1.21892727
