178
Properties=species:S:1:pos:R:3 pbc="F F F"
C        5.67218432       6.99789775       0.04835792
C        5.18639120       5.56369553      -0.10526150
N        6.08710692       4.74626517      -0.89108757
C        6.11386215       4.66553904      -2.26034895
S        5.12231729       5.61077286      -3.31550468
C        4.30911145       4.28235817      -4.25549149
C        3.41673057       3.41355483      -3.39812986
C        3.72803158       2.05894014      -3.20548829
C        2.91625424       1.24895150      -2.40807139
C        1.79146455       1.79146455      -1.79146455
C        1.46613666       3.13415688      -1.97074521
C        2.27196887       3.94046479      -2.77810554
N        6.96292895       3.74755078      -2.64347616
N        7.50766848       3.20079331      -1.51261512
C        6.99356687       3.79759067      -0.44636441
C        7.32870570       3.41365624       0.93323396
C        7.68010953       2.07510171       1.18545962
C        8.03576606       1.64347717       2.46751003
C        8.04450291       2.55243338       3.51883257
C        7.71436979       3.88590361       3.29437497
C        7.37175077       4.31419473       2.00521880
H        4.99659096       7.55812331       0.70207519
H        5.70991790       7.51421880      -0.91605044
H        6.67819170       7.04287856       0.47629074
H        4.20128910       5.54755813      -0.58396013
H        5.04453981       5.09403332       0.87149331
H        5.07078703       3.68277855      -4.76671610
H        3.69880447       4.74163564      -5.04153847
H        4.61430736       1.62633854      -3.66816739
H        3.17374485       0.20140142      -2.27312556
H        0.58978081       3.56112760      -1.49036651
H        2.00667472       4.98743161      -2.91360867
H        7.68925984       1.35407681       0.36781714
H        8.30982612       0.60390619       2.62472937
H        7.73442532       4.60427614       4.11046555
H        7.16818182       5.36900001       1.86637991
C        8.41050316       2.11716145       4.84177707
C        8.71702837       1.75262120       5.94974309
Br       9.21265372       1.16319045       7.74123043
C       -5.79813254      -6.89371655       0.07012495
C       -5.28374796      -5.47141779      -0.10018248
N       -6.15534848      -4.65245897      -0.91665219
C       -6.15623937      -4.59611644      -2.28739433
S       -5.16336233      -5.57784507      -3.30738743
C       -4.30958140      -4.28139432      -4.25598540
C       -3.41700432      -3.41321850      -3.39819244
C       -3.70706791      -2.05000227      -3.23538984
C       -2.89506719      -1.24027350      -2.43793643
C       -1.79146455      -1.79146455      -1.79146455
C       -1.48740039      -3.14276982      -1.94086854
C       -2.29321401      -3.94910529      -2.74821990
N       -6.98155741      -3.67024859      -2.70214989
N       -7.53634921      -3.09345373      -1.59127397
C       -7.05223165      -3.67987780      -0.50541250
C       -7.40487452      -3.26507580       0.86082234
C       -7.73638066      -1.91611950       1.08274853
C       -8.10693197      -1.45504651       2.35024528
C       -8.15087954      -2.34448562       3.41726144
C       -7.84103968      -3.68747673       3.22261798
C       -7.48333463      -4.14511400       1.94772193
H       -5.14456338      -7.45393948       0.74586377
H       -5.82803871      -7.42668991      -0.88545852
H       -6.81225367      -6.91300076       0.48047490
H       -4.29014416      -5.48151600      -0.56114720
H       -5.15082381      -4.98671899       0.87046297
H       -5.05102952      -3.67771225      -4.79153992
H       -3.69379913      -4.76565161      -5.02252785
H       -4.57696919      -1.61014420      -3.72169990
H       -3.13587919      -0.18602763      -2.32636501
H       -0.62762900      -3.57650110      -1.43714482
H       -2.04458050      -5.00291721      -2.86021730
H       -7.71788566      -1.20999410       0.25236024
H       -8.36484954      -0.40807802       2.48392463
H       -7.88865533      -4.39045850       4.05087793
H       -7.29648911      -5.20572280       1.83140999
C       -8.53243355      -1.87884047       4.72538648
C       -8.85198503      -1.48886266       5.82094121
Br      -9.36867275      -0.85830152       7.59236054
C       -0.83940752       8.23961406       3.54270257
C       -1.15080353       7.02609375       2.67845095
N       -2.51482146       7.01737955       2.19225864
C       -3.61033849       6.55376758       2.87564407
S       -3.57350603       5.97163900       4.50344980
C       -4.27639587       4.31159709       4.25896815
C       -3.40342086       3.42095535       3.40403905
C       -3.86153011       2.97654495       2.15438495
C       -3.06024132       2.16114070       1.35189510
C       -1.79146455       1.79146455       1.79146455
C       -1.31916557       2.22279332       3.02907986
C       -2.12602224       3.02839676       3.83612020
N       -4.66797293       6.57921166       2.10677130
N       -4.27241255       7.06091822       0.88774615
C       -2.97616165       7.33601465       0.92534565
C       -2.22124036       7.82581520      -0.23792758
C       -2.65037715       7.44028139      -1.52090691
C       -1.99722234       7.88829227      -2.67378142
C       -0.90018829       8.73331186      -2.55539642
C       -0.46300799       9.14135005      -1.29845961
C       -1.12988839       8.69926490      -0.14842659
H        0.21623664       8.23766503       3.83121071
H       -1.43732823       8.24332934       4.45952957
H       -1.04938301       9.17683636       3.01856015
H       -0.98218786       6.10455872       3.24606077
H       -0.47103958       6.97183225       1.82420800
H       -5.28231825       4.40395057       3.83401286
H       -4.39829985       3.84193866       5.24174007
H       -4.84505404       3.27244830       1.79131095
H       -3.43454148       1.82587230       0.38785805
H       -0.32927839       1.93711522       3.37488132
H       -1.74804066       3.35715323       4.80252112
H       -3.51688304       6.78760167      -1.62896520
H       -2.36092697       7.57733695      -3.64926098
H        0.38536436       9.81457011      -1.20096984
H       -0.78595647       9.07881930       0.80602615
C       -0.22239801       9.20041624      -3.73692671
C        0.34525136       9.59161617      -4.72645833
Br       1.26309237      10.22415336      -6.32644725
C        1.66216177      -8.50697468       2.45258770
C        1.88994027      -7.13819805       1.82720992
N        3.28867861      -6.86149912       1.57428193
C        4.18898656      -6.36704679       2.48371680
S        3.83264273      -6.06700911       4.14894299
C        4.28451634      -4.30796485       4.25447992
C        3.40617417      -3.42065179       3.40158929
C        3.95535478      -2.72049711       2.31660812
C        3.15194724      -1.90522333       1.51610655
C        1.79146455      -1.79146455       1.79146455
C        1.22797488      -2.47886038       2.86420350
C        2.03460311      -3.28452240       3.67141369
N        5.33318953      -6.12050469       1.90026167
N        5.19405475      -6.44868087       0.57834130
C        3.96696521      -6.90358091       0.36697582
C        3.47030886      -7.29860707      -0.95978796
C        4.00534611      -6.65460186      -2.09019634
C        3.59990257      -6.99634884      -3.38451822
C        2.64850461      -7.99346181      -3.56386270
C        2.11287022      -8.65635379      -2.46332558
C        2.53307754      -8.31802956      -1.17038041
H        0.59042989      -8.69841396       2.56379524
H        2.11957298      -8.57600611       3.44460806
H        2.09186142      -9.30858716       1.84433095
H        1.49715081      -6.35320510       2.48245145
H        1.33569257      -7.04128556       0.89010170
H        5.34126175      -4.18966169       3.98935825
H        4.19106067      -3.99131606       5.29960185
H        5.01458085      -2.81418894       2.08004350
H        3.59724833      -1.36958623       0.68143727
H        0.16658685      -2.39324549       3.08144258
H        1.58432261      -3.81469158       4.50870081
H        4.76123204      -5.87909329      -1.96480582
H        4.04037816      -6.48408406      -4.23545929
H        1.37949423      -9.44769987      -2.59895819
H        2.12594765      -8.89116316      -0.34630890
C        2.22606461      -8.35264467      -4.89282174
C        1.87227111      -8.65346031      -6.00582493
Br       1.30021694      -9.13985376      -7.80545696
C       -0.00445707       0.01189536      -1.78238275
H       -0.66409135       0.67374010      -2.43557963
H        0.65740317      -0.63156657      -2.45157240
C       -0.90989263      -0.90692880      -0.91072765
C        0.90977584       0.90977584      -0.90977584
C       -0.00465871       1.77757030       0.00794375
H       -0.66225468       2.44313916      -0.64384735
H        0.64322798       2.43503045       0.67728295
C       -1.78241447       0.00034974      -0.00472694
H       -2.45427497      -0.65498947       0.64260836
H       -2.43311707       0.67328779      -0.65473579
C       -0.91132561       0.90220522       0.91563759
C       -0.01476271      -0.02253852       1.78660255
H       -0.67934791      -0.69751639       2.42135241
H        0.63392994       0.61504881       2.47327442
C        0.01484550      -1.77751727      -0.01636693
H        0.67870853      -2.42144646      -0.68295456
H       -0.62264859      -2.45592969       0.64226336
C        1.78714474       0.01002794       0.00389507
H        2.44202412       0.67113390       0.66197326
H        2.45385902      -0.65136977      -0.64189061
C        0.91606151      -0.90478549       0.90901405
