170
Properties=species:S:1:pos:R:3 pbc="F F F"
C        5.67218432       6.99789775       0.04835792
C        5.18639120       5.56369553      -0.10526150
N        6.08710692       4.74626517      -0.89108757
C        6.11386215       4.66553904      -2.26034895
S        5.12231729       5.61077286      -3.31550468
C        4.30911145       4.28235817      -4.25549149
C        3.41673057       3.41355483      -3.39812986
C        3.72803158       2.05894014      -3.20548829
C        2.91625424       1.24895150      -2.40807139
C        1.79146455       1.79146455      -1.79146455
C        1.46613666       3.13415688      -1.97074521
C        2.27196887       3.94046479      -2.77810554
N        6.96292895       3.74755078      -2.64347616
N        7.50766848       3.20079331      -1.51261512
C        6.99356687       3.79759067      -0.44636441
C        7.32870570       3.41365624       0.93323396
C        7.68010953       2.07510171       1.18545962
C        8.03576606       1.64347717       2.46751003
C        8.04450291       2.55243338       3.51883257
Br       8.52471175       1.98133696       5.25459544
C        7.71436979       3.88590361       3.29437497
C        7.37175077       4.31419473       2.00521880
H        4.99659096       7.55812331       0.70207519
H        5.70991790       7.51421880      -0.91605044
H        6.67819170       7.04287856       0.47629074
H        4.20128910       5.54755813      -0.58396013
H        5.04453981       5.09403332       0.87149331
H        5.07078703       3.68277855      -4.76671610
H        3.69880447       4.74163564      -5.04153847
H        4.61430736       1.62633854      -3.66816739
H        3.17374485       0.20140142      -2.27312556
H        0.58978081       3.56112760      -1.49036651
H        2.00667472       4.98743161      -2.91360867
H        7.68925984       1.35407681       0.36781714
H        8.30982612       0.60390619       2.62472937
H        7.73442532       4.60427614       4.11046555
H        7.16818182       5.36900001       1.86637991
C       -7.07131373      -5.58051987       0.03010945
C       -6.23960492      -4.34247591      -0.27326740
N       -6.75518361      -3.57884615      -1.39042989
C       -6.50181939      -3.82115088      -2.71677987
S       -5.58074321      -5.15981120      -3.30804043
C       -4.31294643      -4.27092009      -4.26309459
C       -3.41950683      -3.40929912      -3.39960930
C       -3.43184162      -2.01387792      -3.54674047
C       -2.61776385      -1.20720611      -2.74830716
C       -1.79146455      -1.79146455      -1.79146455
C       -1.76547500      -3.17502189      -1.63054186
C       -2.57113000      -3.98166930      -2.43773990
N       -7.02075694      -2.87612562      -3.45707333
N       -7.62483190      -1.98397865      -2.61226637
C       -7.47857734      -2.39762399      -1.36132062
C       -7.96868144      -1.64147086      -0.19897568
C       -8.03433457      -0.23963331      -0.29578375
C       -8.51418977       0.54274984       0.75970673
C       -8.93722243      -0.07269306       1.93181177
Br      -9.58879015       0.97367101       3.36366587
C       -8.89590031      -1.45907448       2.04907635
C       -8.42633048      -2.23749120       0.98309498
H       -6.68426559      -6.08765718       0.91928368
H       -7.04661417      -6.29375164      -0.79982134
H       -8.12171639      -5.33119497       0.20813183
H       -5.20632331      -4.62734219      -0.49914186
H       -6.17848872      -3.69052919       0.60193808
H       -4.79972702      -3.67620677      -5.04434790
H       -3.69108516      -5.01048268      -4.78041074
H       -4.08610373      -1.54313615      -4.27957342
H       -2.64060705      -0.12824353      -2.87942125
H       -1.12268894      -3.63432453      -0.88426147
H       -2.54060735      -5.06168838      -2.30541927
H       -7.71718321       0.25547785      -1.21381416
H       -8.55893607       1.62252796       0.64740518
H       -9.23995786      -1.94648575       2.95820770
H       -8.45584637      -3.31406041       1.09910486
C       -1.33230861       8.44167832       2.84773721
C       -1.59816931       7.12484823       2.13233069
N       -2.99292756       6.94418601       1.78734608
C       -3.97033733       6.45369565       2.61571717
S       -3.72835410       6.04249476       4.27774598
C       -4.28148394       4.30953880       4.25593837
C       -3.40511298       3.42085717       3.40244510
C       -3.92793775       2.81441474       2.25010753
C       -3.12535049       1.99901939       1.44890723
C       -1.79146455       1.79146455       1.79146455
C       -1.25436569       2.38502970       2.93164336
C       -2.06108078       3.19066287       3.73879555
N       -5.09051571       6.30645118       1.95698900
N       -4.85700682       6.69806629       0.66600381
C       -3.59658986       7.09182153       0.54911056
C       -3.00275199       7.52956686      -0.72319088
C       -3.50575679       6.98076644      -1.91677160
C       -3.00764972       7.36892143      -3.16483796
C       -1.99413538       8.31741415      -3.23344580
Br      -1.31447139       8.85069378      -4.91371189
C       -1.48776297       8.88664613      -2.06851067
C       -2.00031869       8.50283628      -0.82242828
H       -0.25995730       8.56413293       3.02854887
H       -1.84210206       8.48260278       3.81548231
H       -1.68128593       9.29908395       2.26440965
H       -1.28780145       6.28357397       2.76143193
H       -0.99657025       7.04749116       1.22301842
H       -5.32593931       4.26756538       3.92677700
H       -4.26643199       3.93109694       5.28444965
H       -4.96488658       2.98233431       1.96159239
H       -3.55013916       1.53679080       0.56134187
H       -0.21369561       2.22609658       3.20148274
H       -1.63178092       3.64700801       4.62892607
H       -4.30908408       6.24477195      -1.87833652
H       -3.42539983       6.93060332      -4.06700021
H       -0.70540907       9.64029754      -2.11747070
H       -1.61090482       9.00524092       0.05465618
C        1.08438535      -8.35861163       3.17872716
C        1.37517052      -7.08918048       2.39099723
N        2.75887269      -6.98995197       1.97563499
C        3.79517474      -6.50925668       2.73531872
S        3.65029131      -6.01293708       4.38536644
C        4.27902364      -4.31062628       4.25731119
C        3.40428077      -3.42094365       3.40319084
C        3.89905614      -2.89209220       2.20131167
C        3.09710907      -2.07666168       1.39950637
C        1.79146455      -1.79146455       1.79146455
C        1.28245182      -2.30734079       2.98124614
C        2.08923602      -3.11295662       3.78834655
N        4.88862916      -6.44455274       2.02077399
N        4.57734719      -6.88231899       0.76141073
C        3.29642405      -7.22123997       0.71985793
C        2.62438248      -7.68726190      -0.50251641
C        3.09485334      -7.21685040      -1.74195211
C        2.52170560      -7.63679897      -2.94677138
C        1.46452897      -8.53872291      -2.92514816
Br       0.68337651      -9.11435733      -4.54628056
C        0.98843383      -9.03065044      -1.71318584
C        1.57571134      -8.61580609      -0.51079073
H        0.01730402      -8.42228141       3.41305367
H        1.63675491      -8.37996888       4.12346336
H        1.36671241      -9.25679588       2.62127124
H        1.13279880      -6.20685351       2.99315504
H        0.73557185      -7.02452889       1.50697909
H        5.30768142      -4.33261602       3.87998425
H        4.32934076      -3.88610436       5.26653346
H        4.91271125      -3.12135346       1.87474858
H        3.50002781      -1.67522427       0.47301975
H        0.26380200      -2.08771046       3.28976247
H        1.68220034      -3.50819581       4.71731885
H        3.93132941      -6.51844945      -1.77425935
H        2.91584109      -7.25954591      -3.88638406
H        0.17159937      -9.74812938      -1.69149284
H        1.20579628      -9.05946799       0.40553765
C       -0.00445707       0.01189536      -1.78238275
H       -0.66409135       0.67374010      -2.43557963
H        0.65740317      -0.63156657      -2.45157240
C       -0.90989263      -0.90692880      -0.91072765
C        0.90977584       0.90977584      -0.90977584
C       -0.00465871       1.77757030       0.00794375
H       -0.66225468       2.44313916      -0.64384735
H        0.64322798       2.43503045       0.67728295
C       -1.78241447       0.00034974      -0.00472694
H       -2.45427497      -0.65498947       0.64260836
H       -2.43311707       0.67328779      -0.65473579
C       -0.91132561       0.90220522       0.91563759
C       -0.01476271      -0.02253852       1.78660255
H       -0.67934791      -0.69751639       2.42135241
H        0.63392994       0.61504881       2.47327442
C        0.01484550      -1.77751727      -0.01636693
H        0.67870853      -2.42144646      -0.68295456
H       -0.62264859      -2.45592969       0.64226336
C        1.78714474       0.01002794       0.00389507
H        2.44202412       0.67113390       0.66197326
H        2.45385902      -0.65136977      -0.64189061
C        0.91606151      -0.90478549       0.90901405
