173
Properties=species:S:1:pos:R:3 pbc="F F F"
C        0.00000000       0.00000000       0.00000000
C        8.49232081       2.15195925      -7.68367340
C        8.21564847       2.10809218      -6.18850231
N        6.82081677       1.86317288      -5.87801998
C        5.91469054       2.76811403      -5.38948287
S        6.31616710       4.30922169      -4.71596766
C        4.67837067       4.99598165      -4.34065842
C        4.06343584       4.37211477      -3.09333166
O        4.23841259       4.87364552      -1.98544008
N        3.30522233       3.24878150      -3.36860114
C        2.50921942       2.49588957      -2.48872127
C        2.20126864       2.88588431      -1.18487222
C        1.38827361       2.07845788      -0.38027578
C        0.88179615       0.88179615      -0.88179615
C        1.17445533       0.48448326      -2.18292911
C        1.98547706       1.29292457      -2.98341300
N        4.70272858       2.28061933      -5.48860335
N        4.80900504       0.99629031      -5.93775867
C        6.08860834       0.71173489      -6.12522959
C        6.57671987      -0.59472800      -6.58230888
C        5.79859447      -1.32110406      -7.49978561
C        6.20331429      -2.58207874      -7.94994541
C        7.39244070      -3.12924675      -7.48362821
C        8.16973181      -2.43749155      -6.55641744
C        7.75190125      -1.18189532      -6.09685812
H        9.53962086       2.41209596      -7.86634244
H        7.86283191       2.89875407      -8.17910223
H        8.30100766       1.18570091      -8.16028423
H        8.52049578       3.06048959      -5.74834455
H        8.82156621       1.34573091      -5.69499469
H        4.00296526       4.89587581      -5.19679923
H        4.79026913       6.06910608      -4.15366194
H        3.44724931       2.83459339      -4.29126461
H        2.57347080       3.81651790      -0.76782644
H        1.16035366       2.39714583       0.63346614
H        0.78414090      -0.44690230      -2.58311129
H        2.21088298       0.96627267      -3.99705702
H        4.85827502      -0.90824823      -7.86309861
H        5.57823775      -3.12416921      -8.65528644
H        9.08867270      -2.87154865      -6.17220660
H        8.34840010      -0.69887376      -5.32948132
C        7.81681656      -4.42506204      -7.94662700
C        8.17223135      -5.51030734      -8.33438848
Br       8.74690699      -7.26505720      -8.96136601
C      -10.00163836      -4.90232831      -3.42398678
C       -8.76861289      -5.16950875      -2.57412132
N       -7.77686266      -4.11623463      -2.66891234
C       -6.57430432      -4.17395766      -3.32402547
S       -5.82366109      -5.62354948      -3.89414588
C       -4.32976730      -4.98305886      -4.70218458
C       -3.26132556      -4.57144704      -3.69610967
O       -2.40254069      -5.36855405      -3.32640345
N       -3.36960012      -3.24996683      -3.30303803
C       -2.49882429      -2.50787725      -2.48712873
C       -1.24164594      -2.95324886      -2.07713037
C       -0.43287471      -2.14086886      -1.27326369
C       -0.88179615      -0.88179615      -0.88179615
C       -2.13012772      -0.42183204      -1.28990793
C       -2.93439513      -1.23476268      -2.09265682
N       -6.06952004      -2.96990295      -3.43252827
N       -6.88233124      -2.11706790      -2.74365488
C       -7.88998064      -2.80569091      -2.22990127
C       -8.94809352      -2.21238126      -1.40382597
C       -9.37675741      -0.90600691      -1.69451170
C      -10.36413156      -0.28246107      -0.92458832
C      -10.93153359      -0.96184715       0.14655858
C      -10.50676480      -2.24977222       0.46787932
C       -9.50640616      -2.86368588      -0.29677202
H      -10.68470217      -5.75620580      -3.37715130
H       -9.72978627      -4.73871002      -4.47219192
H      -10.54824162      -4.01911914      -3.07963204
H       -8.32196117      -6.11420080      -2.89316795
H       -9.03265160      -5.30601007      -1.52363014
H       -4.56990975      -4.15204342      -5.37368713
H       -3.90861911      -5.77835181      -5.32606623
H       -4.25869434      -2.79594731      -3.51846566
H       -0.85983355      -3.92568845      -2.37229315
H        0.54268393      -2.50486298      -0.96185429
H       -2.48899837       0.55857149      -0.98992301
H       -3.91098274      -0.86414168      -2.39908825
H       -8.93069787      -0.35850603      -2.52392150
H      -10.67194557       0.73131297      -1.16872237
H      -10.93173423      -2.77584371       1.31824728
H       -9.15593002      -3.84137872       0.01830108
C      -11.95163297      -0.32705663       0.94030807
C      -12.80596620       0.20458044       1.60507327
Br     -14.18735077       1.06419261       2.67994237
C       -3.02473748       9.83633129       5.46688468
C       -2.30330861       8.51626657       5.69266778
N       -2.38503528       7.62444421       4.55253014
C       -3.13718058       6.48302427       4.45208260
S       -3.89030125       5.67106225       5.77999295
C       -4.75666048       4.30983471       4.94851555
C       -3.80756403       3.19407169       4.52724656
O       -3.57915512       2.24499823       5.27334485
N       -3.29305061       3.37339331       3.25616106
C       -2.48800286       2.49707450       2.50875290
C       -2.22084750       1.17716377       2.87401390
C       -1.41663065       0.36911125       2.06126537
C       -0.88179615       0.88179615       0.88179615
C       -1.14651342       2.19393020       0.50142408
C       -1.95003038       2.99736882       1.31441543
N       -3.18021537       6.08803639       3.20369950
N       -2.35635491       6.90339858       2.48330053
C       -1.82547432       7.80368029       3.29641820
C       -0.86836113       8.82976314       2.86617647
C       -1.00834702       9.38576765       1.58316135
C       -0.11002886      10.34895026       1.11220183
C        0.93973772      10.76411404       1.92244584
C        1.11206768      10.21078130       3.18994409
C        0.21878307       9.23501907       3.65062805
H       -2.99799757      10.44186368       6.37819801
H       -4.07306653       9.67118161       5.19644007
H       -2.56169195      10.41992665       4.66537420
H       -2.73856918       8.02476342       6.56599731
H       -1.25096690       8.67563703       5.93568788
H       -5.33147179       4.67374912       4.09041940
H       -5.47949027       3.88230671       5.65124017
H       -3.39582953       4.31150924       2.86576854
H       -2.62960928       0.74572400       3.78248186
H       -1.21762599      -0.65601499       2.36242235
H       -0.73411066       2.60280884      -0.41656961
H       -2.14343029       4.02361401       1.00716836
H       -1.81986648       9.05935913       0.93389978
H       -0.23908104      10.75738111       0.11289282
H        1.94457591      10.51613850       3.81776806
H        0.41799897       8.78092540       4.61608123
C        1.86532577      11.75861099       1.44509631
C        2.64050577      12.59150218       1.04531608
Br       3.89390626      13.93821680       0.39890527
C       10.08842742      -4.30417525       3.93535078
C        8.96794080      -4.59564472       2.94865744
N        7.87351257      -3.64910652       3.03939054
C        6.62886258      -3.87733885       3.56608602
S        5.97576307      -5.43671824       3.92887514
C        4.36048629      -5.01372728       4.64079717
C        3.35069319      -4.60244918       3.57573989
O        2.61024047      -5.43283178       3.05442595
N        3.36382915      -3.24451065       3.31426517
C        2.50074961      -2.50665474       2.48642592
C        1.33460496      -3.01989269       1.91752752
C        0.52504468      -2.20802371       1.11393887
C        0.88179615      -0.88179615       0.88179615
C        2.03791322      -0.35469638       1.44925810
C        2.84316246      -1.16740260       2.25124958
N        6.00117166      -2.73935968       3.73141991
N        6.78478444      -1.75436468       3.20390490
C        7.89660540      -2.29708762       2.73187980
C        8.96093971      -1.53410817       2.06925287
C        9.23230000      -0.22946833       2.51550769
C       10.21856531       0.55170058       1.90431623
C       10.94268690       0.03344511       0.83758038
C       10.67610981      -1.24956656       0.36298134
C        9.67650151      -2.02182768       0.96853486
H       10.85312212      -5.08521552       3.87972163
H        9.70971420      -4.26862705       4.96234695
H       10.57454850      -3.34642844       3.72601587
H        8.58915522      -5.60296925       3.13720544
H        9.33646221      -4.60478551       1.92104409
H        4.45755987      -4.23426852       5.40381192
H        3.96525875      -5.90048827       5.14729013
H        4.18158347      -2.73643054       3.65509329
H        1.02492676      -4.04661853       2.08626986
H       -0.37867537      -2.62517945       0.67752927
H        2.32450157       0.67835382       1.27420214
H        3.74769763      -0.74310004       2.68341500
H        8.66285291       0.19248105       3.34275353
H       10.40287547       1.56010526       2.26658476
H       11.22442188      -1.65010241      -0.48519364
H        9.45268811      -2.99132970       0.53498986
C       11.96241103       0.83100021       0.20697070
C       12.81642999       1.49895260      -0.32116490
Br      14.19730642       2.57897512      -1.17511551
