165
Properties=species:S:1:pos:R:3 pbc="F F F"
C        0.00000000       0.00000000       0.00000000
C        8.49232081       2.15195925      -7.68367340
C        8.21564847       2.10809218      -6.18850231
N        6.82081677       1.86317288      -5.87801998
C        5.91469054       2.76811403      -5.38948287
S        6.31616710       4.30922169      -4.71596766
C        4.67837067       4.99598165      -4.34065842
C        4.06343584       4.37211477      -3.09333166
O        4.23841259       4.87364552      -1.98544008
N        3.30522233       3.24878150      -3.36860114
C        2.50921942       2.49588957      -2.48872127
C        2.20126864       2.88588431      -1.18487222
C        1.38827361       2.07845788      -0.38027578
C        0.88179615       0.88179615      -0.88179615
C        1.17445533       0.48448326      -2.18292911
C        1.98547706       1.29292457      -2.98341300
N        4.70272858       2.28061933      -5.48860335
N        4.80900504       0.99629031      -5.93775867
C        6.08860834       0.71173489      -6.12522959
C        6.57671987      -0.59472800      -6.58230888
C        5.79859447      -1.32110406      -7.49978561
C        6.20331429      -2.58207874      -7.94994541
C        7.39244070      -3.12924675      -7.48362821
Br       7.94932941      -4.82968490      -8.09119999
C        8.16973181      -2.43749155      -6.55641744
C        7.75190125      -1.18189532      -6.09685812
H        9.53962086       2.41209596      -7.86634244
H        7.86283191       2.89875407      -8.17910223
H        8.30100766       1.18570091      -8.16028423
H        8.52049578       3.06048959      -5.74834455
H        8.82156621       1.34573091      -5.69499469
H        4.00296526       4.89587581      -5.19679923
H        4.79026913       6.06910608      -4.15366194
H        3.44724931       2.83459339      -4.29126461
H        2.57347080       3.81651790      -0.76782644
H        1.16035366       2.39714583       0.63346614
H        0.78414090      -0.44690230      -2.58311129
H        2.21088298       0.96627267      -3.99705702
H        4.85827502      -0.90824823      -7.86309861
H        5.57823775      -3.12416921      -8.65528644
H        9.08867270      -2.87154865      -6.17220660
H        8.34840010      -0.69887376      -5.32948132
C       -8.00253954      -2.12613382      -8.19928010
C       -7.84422729      -1.97399262      -6.69402305
N       -6.46281757      -1.81580928      -6.28338278
C       -5.68158657      -2.74445613      -5.64624474
S       -6.26923416      -4.18342039      -4.88870190
C       -4.73332104      -4.96417934      -4.31751036
C       -4.16845996      -4.28503857      -3.07538373
O       -4.47517669      -4.67199815      -1.95032336
N       -3.29518674      -3.25472744      -3.37269080
C       -2.50970141      -2.49419036      -2.48993850
C       -2.34291166      -2.79209302      -1.13702050
C       -1.52972851      -1.98536204      -0.33191672
C       -0.88179615      -0.88179615      -0.88179615
C       -1.03298073      -0.57761924      -2.23126773
C       -1.84462408      -1.38515673      -3.03203382
N       -4.42758489      -2.36655275      -5.67781361
N       -4.38460358      -1.12208258      -6.23636786
C       -5.61516234      -0.75304597      -6.55736451
C       -5.94873593       0.54341401      -7.15897883
C       -5.03878284       1.12178389      -8.06027707
C       -5.29409260       2.36697738      -8.64406573
C       -6.46441187       3.04669895      -8.32910924
Br      -6.81969835       4.72670415      -9.11785030
C       -7.37128989       2.50348925      -7.42085706
C       -7.10324754       1.26340425      -6.82702076
H       -9.05049062      -2.31619009      -8.45137855
H       -7.40301874      -2.96161019      -8.57605927
H       -7.68970240      -1.22381402      -8.73347638
H       -8.26564961      -2.85660941      -6.20707090
H       -8.41882734      -1.12512376      -6.31834070
H       -3.98509393      -4.99401358      -5.11653279
H       -4.95336754      -6.00433677      -4.05533285
H       -3.32576556      -2.91279055      -4.33455120
H       -2.82744842      -3.64970614      -0.68066058
H       -1.41283305      -2.23141309       0.72021279
H       -0.53175038       0.28075961      -2.66935912
H       -1.95833432      -1.13139177      -4.08448658
H       -4.11203761       0.60444437      -8.30553216
H       -4.56928894       2.79323836      -9.33330440
H       -8.27663341       3.04198922      -7.15468646
H       -7.79949602       0.89892383      -6.07843547
C       -8.39894799       2.14011110       7.78889436
C       -8.14637396       2.07566108       6.29020792
N       -6.75294871       1.84868015       5.96038077
C       -5.87040342       2.76014784       5.44173618
S       -6.30887166       4.28283609       4.74964870
C       -4.68931131       4.99020640       4.33549303
C       -4.08469839       4.35569331       3.08849057
O       -4.28641801       4.83553105       1.97554913
N       -3.30322239       3.24986447       3.36951812
C       -2.50933441       2.49554813       2.48894773
C       -2.22962810       2.86857849       1.17381859
C       -1.41658776       2.06129192       0.36912759
C       -0.88179615       0.88179615       0.88179615
C       -1.14613688       0.50165717       2.19407366
C       -1.95728966       1.30992176       2.99460322
N       -4.64892927       2.29452808       5.52849391
N       -4.72611163       1.01636059       6.00058180
C       -5.99746195       0.71385129       6.21425957
C       -6.45586895      -0.59263359       6.70106539
C       -5.65053603      -1.29047223       7.61721221
C       -6.02645512      -2.55021715       8.09494298
C       -7.21375836      -3.12477650       7.65784030
Br      -7.73179716      -4.82373159       8.30277893
C       -8.01783544      -2.46169916       6.73252142
C       -7.62887435      -1.20727235       6.24526205
H       -9.44731133       2.38590806       7.98483988
H       -7.77400555       2.90546428       8.26121838
H       -8.18352500       1.18531594       8.27815186
H       -8.47446238       3.01533291       5.83953463
H       -8.74745787       1.29516848       5.81966545
H       -3.99823107       4.91572946       5.18167978
H       -4.82234529       6.05802970       4.13266216
H       -3.42295618       2.84897645       4.30117468
H       -2.62430338       3.78576635       0.74774541
H       -1.21088510       2.36659513      -0.65344689
H       -0.73362097      -0.41626648       2.60299540
H       -2.16034650       0.99669680       4.01716937
H       -4.71141444      -0.85604226       7.95775322
H       -5.38074446      -3.06992817       8.79853869
H       -8.93557350      -2.91732234       6.37107950
H       -8.24604796      -0.74718513       5.48014483
C        9.00972868      -2.29274272       7.02548205
C        8.58287805      -2.36229615       5.56706876
N        7.19275494      -2.00275451       5.36650019
C        6.15844741      -2.84975278       5.06408725
S        6.33867077      -4.48149941       4.52118628
C        4.61270237      -5.02486378       4.37744459
C        3.93215417      -4.46117014       3.13555796
O        3.94128062      -5.08129148       2.07492610
N        3.31724561      -3.24332923       3.36203013
C        2.50833160      -2.49797154       2.48752712
C        2.02940432      -2.97554585       1.26707500
C        1.21676288      -2.16726530       0.46297908
C        0.88179615      -0.88179615       0.88179615
C        1.34599592      -0.39562847       2.10024331
C        2.15615532      -1.20509701       2.90056230
N        5.01544409      -2.23038537       5.22612180
N        5.28987636      -0.92750651       5.52567115
C        6.60331038      -0.76249135       5.55977109
C        7.25866190       0.52292155       5.82856040
C        6.65382121       1.41091766       6.73437247
C        7.22157316       2.65940793       7.00901572
C        8.40168291       3.03177953       6.37691878
Br       9.17836540       4.71426369       6.74674279
C        9.00796402       2.17721791       5.45791160
C        8.42675672       0.93453670       5.17464403
H       10.04094716      -2.64296748       7.13414462
H        8.36770456      -2.91877744       7.65420621
H        8.96223887      -1.27084213       7.41391180
H        8.74790482      -3.37894427       5.20248083
H        9.20324964      -1.71819223       4.94084994
H        4.04359785      -4.77344374       5.27859871
H        4.60186264      -6.11669026       4.29448425
H        3.59416018      -2.76058382       4.21836331
H        2.26560329      -3.97553256       0.91667930
H        0.85432314      -2.55510013      -0.48538993
H        1.09016652       0.60540394       2.43558731
H        2.51685275      -0.80912364       3.84823627
H        5.72194430       1.13556842       7.22674952
H        6.72843404       3.32873758       7.70965852
H        9.91849605       2.47381589       4.94465049
H        8.89069880       0.32078956       4.40909842
