153
Properties=species:S:1:pos:R:3 pbc="F F F"
C        0.00000000       0.00000000       0.00000000
C        8.02450614       2.17752418      -4.36900367
C        7.59127954       1.47945108      -5.43148513
C        6.65180163       1.93512695      -6.52113489
N        6.08879159       3.25896707      -6.32541288
C        4.95978698       3.55238705      -5.60336573
S        3.99759812       2.36762476      -4.79264948
C        3.37072567       3.34592381      -3.39723369
C        2.49818250       2.49935567      -2.50013196
C        3.06414337       1.72420867      -1.47552048
C        2.25801568       0.91898207      -0.66707173
C        0.88191264       0.88191264      -0.88191264
C        0.30448746       1.63966472      -1.89835924
C        1.11124716       2.44352109      -2.70697513
N        4.73239183       4.84060981      -5.63235964
N        5.70766300       5.41028201      -6.40988807
C        6.53835502       4.46693317      -6.83143862
C        7.68168825       4.72387806      -7.72127801
C        8.88323364       4.00371833      -7.67445951
C        9.93374043       4.29014006      -8.55514169
C        9.80508639       5.32610527      -9.47472078
Br      11.22753979       5.71689945     -10.65487217
C        8.63837074       6.08108671      -9.51761420
C        7.58664371       5.77942748      -8.64543362
H        8.70563756       1.72775263      -3.65079110
H        7.73040678       3.20576896      -4.17192921
H        7.94304851       0.45236488      -5.53938818
H        5.82467310       1.22268654      -6.60782107
H        7.15537197       1.91220339      -7.49219409
H        2.79971604       4.20570089      -3.76546877
H        4.21412392       3.74240157      -2.81980271
H        4.13900153       1.73794892      -1.30637244
H        2.71209661       0.32407737       0.12083218
H       -0.76771296       1.60923400      -2.07318081
H        0.65196369       3.02321354      -3.50561642
H        9.04765997       3.22164508      -6.94201821
H       10.84967669       3.70657433      -8.50341780
H        8.53367819       6.90623588     -10.21716588
H        6.68105823       6.38478866      -8.68652531
C       -8.26710290      -3.08975847      -3.21417262
C       -8.21711972      -2.13134608      -4.15374995
C       -7.47898553      -2.15928343      -5.46979451
N       -6.65565787      -3.33625110      -5.68126257
C       -5.35955592      -3.49533061      -5.26065323
S       -4.47172374      -2.29252162      -4.39362699
C       -3.38116905      -3.34216435      -3.39054977
C       -2.49840630      -2.49895183      -2.50031200
C       -2.95147934      -2.06961298      -1.24278020
C       -2.14466794      -1.26476955      -0.43463199
C       -0.88191264      -0.88191264      -0.88191264
C       -0.41919150      -1.29350946      -2.12981045
C       -1.22689432      -2.09715216      -2.93769690
N       -4.91440245      -4.67259327      -5.61836557
N       -5.91901372      -5.29540746      -6.31341191
C       -6.98016088      -4.50173720      -6.35482874
C       -8.22764441      -4.84237806      -7.05682184
C       -9.49840863      -4.43055942      -6.63244343
C      -10.64960591      -4.78028718      -7.34912909
C      -10.54436173      -5.57642295      -8.48512776
Br     -12.09985184      -6.05505400      -9.44440557
C       -9.29974469      -6.03010082      -8.90722613
C       -8.15205089      -5.66396591      -8.19548802
H       -8.84002673      -2.94213902      -2.30201553
H       -7.75463061      -4.04419375      -3.30928059
H       -8.76461949      -1.20713443      -3.96304765
H       -6.83579552      -1.27603718      -5.54334800
H       -8.18291065      -2.07384508      -6.30301373
H       -2.76081638      -3.97059185      -4.03947746
H       -3.98734649      -4.01563049      -2.77335122
H       -3.94026565      -2.35433335      -0.88872389
H       -2.51092694      -0.93996239       0.53554753
H        0.56274801      -0.99237319      -2.48507667
H       -0.86082210      -2.40427802      -3.91569352
H       -9.63373585      -3.85156161      -5.72602580
H      -11.62099545      -4.43615073      -7.00252264
H       -9.20642135      -6.66970116      -9.78095745
H       -7.18423220      -6.03322160      -8.53491840
C       -1.46181895       6.83729928       6.27191577
C       -1.54772385       7.70452992       5.24996198
C       -2.74269553       7.99139076       4.37397718
N       -3.89828387       7.14928585       4.62560182
C       -4.12878618       5.91591386       4.07083972
S       -3.05959930       5.14544069       2.95283236
C       -3.36353460       3.39993833       3.35041024
C       -2.50009684       2.49941195       2.49816133
C       -1.19118126       2.17996121       2.89273005
C       -0.38464749       1.37166519       2.08775680
C       -0.88191264       0.88191264       0.88191264
C       -2.17615087       1.19440696       0.47195358
C       -2.98145604       2.00356992       1.27671742
N       -5.26287351       5.43283991       4.50964787
N       -5.81033694       6.37127133       5.34622482
C       -4.99382160       7.41235387       5.43055135
C       -5.29002443       8.62080790       6.21601199
C       -4.31157707       9.39390758       6.85592683
C       -4.65576852      10.54024237       7.58301128
C       -5.99160426      10.90901147       7.70529671
Br      -6.45400667      12.45024813       8.69505661
C       -6.98582976      10.13915223       7.11208967
C       -6.63376916       9.00381975       6.37391590
H       -0.53340087       6.72445518       6.82632524
H       -2.29333567       6.21686878       6.59790050
H       -0.65564944       8.28025553       4.99889659
H       -2.45812763       7.87401419       3.32303889
H       -3.04681879       9.03746411       4.47548656
H       -4.42042706       3.15590232       3.19455631
H       -3.14438724       3.22214191       4.40979905
H       -0.78971333       2.56607492       3.82753464
H        0.62671445       1.13492974       2.40712651
H       -2.56598649       0.81934142      -0.47062606
H       -3.98728908       2.25116549       0.94233907
H       -3.26370293       9.11742522       6.83019511
H       -3.87382400      11.12710929       8.05873553
H       -8.03434136      10.40497171       7.21776689
H       -7.42508227       8.40669005       5.92059988
C        1.46034033      -6.28630652       6.82438715
C        1.34150923      -7.25695735       5.90374916
C        2.39430674      -7.76469078       4.94906596
N        3.65045423      -7.03761779       4.98509952
C        3.94073941      -5.90101555       4.27378479
S        2.83569163      -5.13202643       3.19015429
C        3.35835225      -3.40084780       3.35468313
C        2.49994733      -2.49961647       2.49810632
C        1.28335284      -1.99566498       2.98485470
C        0.47717465      -1.18723098       2.17966385
C        0.88191264      -0.88191264       0.88191264
C        2.08296500      -1.37889033       0.38065608
C        2.88781714      -2.18806340       1.18586285
N        5.16036110      -5.50735569       4.53764450
N        5.70084307      -6.41188008       5.41510994
C        4.79764235      -7.33987693       5.69920754
C        5.05657861      -8.48803655       6.58222915
C        4.08342627      -9.07641744       7.40156778
C        4.38949433     -10.17453996       8.21498789
C        5.68618622     -10.67779505       8.24193117
Br       6.09871725     -12.15293092       9.34766324
C        6.67989064     -10.08965939       7.46752162
C        6.36367252      -9.00264674       6.64518556
H        0.61692805      -6.01339225       7.45386098
H        2.38208944      -5.73409938       6.99191613
H        0.37292614      -7.75051714       5.81135829
H        2.00602049      -7.72319714       3.92596307
H        2.60015041      -8.82271186       5.13690719
H        4.41009654      -3.29509870       3.06569045
H        3.27971323      -3.09273126       4.40388371
H        0.95314597      -2.23691717       3.99325975
H       -0.46223771      -0.80634736       2.57123216
H        2.39967285      -1.14803084      -0.63300183
H        3.81896330      -2.58057925       0.78125109
H        3.07290336      -8.68716271       7.45125720
H        3.61088867     -10.61776854       8.83101161
H        7.70117486     -10.46032870       7.49557641
H        7.15511625      -8.54805946       6.04919649
