169
Properties=species:S:1:pos:R:3 pbc="F F F"
C        0.00000000       0.00000000       0.00000000
C        2.52704831       3.31336767      -9.27489681
C        3.05207899       3.26582091      -8.04285332
C        4.47290852       2.87583597      -7.74127281
N        5.08276848       3.77021042      -6.77311869
C        5.10043735       3.63958809      -5.41274094
S        4.31754020       2.36503849      -4.55070189
C        3.37733189       3.36709389      -3.36231148
C        2.49585852       2.50495096      -2.49344209
C        2.96463776       2.04016804      -1.25573422
C        2.15829890       1.23397337      -0.45006910
C        0.88175295       0.88175295      -0.88175295
C        0.40425397       1.32604983      -2.11314701
C        1.21068927       2.13417512      -2.91781634
N        5.71492694       4.66373996      -4.87222711
N        6.10469962       5.49961327      -5.88913482
C        5.71102945       4.96989288      -7.03167745
C        5.83332631       5.58989617      -8.37813290
O        6.73099974       4.77717225      -9.13094308
C        6.66496355       4.88278389     -10.49199207
C        7.35045443       3.88207693     -11.18657621
C        7.32242289       3.83849585     -12.58154760
C        6.61140906       4.80748992     -13.28391681
Br       6.54141714       4.73880232     -15.17112669
C        5.94945674       5.82758410     -12.60313996
C        5.98398847       5.87082264     -11.20549863
H        1.48787742       3.59569924      -9.42437522
H        3.10443897       3.05543874     -10.15877586
H        2.41418373       3.51515124      -7.19631567
H        5.09411578       2.87172621      -8.64163942
H        4.50281800       1.85876676      -7.33882244
H        2.75511391       4.08908263      -3.90571655
H        4.06520097       3.94711936      -2.73619244
H        3.96365561       2.30335989      -0.91336059
H        2.53697694       0.88584767       0.50728315
H       -0.58895793       1.04816808      -2.45471878
H        0.83055468       2.47176378      -3.87997279
H        6.24262191       6.60269198      -8.29258706
H        4.83609122       5.63591596      -8.83071273
H        7.90426841       3.12511909     -10.63606306
H        7.85240061       3.04711112     -13.10440860
H        5.40426484       6.59346346     -13.14920201
H        5.47260420       6.69025330     -10.71049395
C       -8.28835462      -5.79964632      -1.02731186
C       -7.12131945      -5.58826591      -1.65116785
C       -6.23164432      -6.68039405      -2.17797892
N       -5.73853821      -6.37755492      -3.51000446
C       -4.58604390      -5.72302580      -3.84369669
S       -3.48391520      -5.05354891      -2.69581647
C       -3.36007987      -3.37271799      -3.37393940
C       -2.49868534      -2.49173693      -2.50382929
C       -1.12720674      -2.36408235      -2.76925093
C       -0.32147738      -1.55804957      -1.96281442
C       -0.88175295      -0.88175295      -0.88175295
C       -2.24028184      -1.00564527      -0.59752370
C       -3.04619829      -1.81062757      -1.40585487
N       -4.49830326      -5.60610097      -5.14648979
N       -5.61811020      -6.18264813      -5.69268937
C       -6.37170378      -6.63315519      -4.70774081
C       -7.72440172      -7.23742619      -4.83952747
O       -7.61496604      -8.59772992      -4.42641910
C       -8.77016519      -9.22212329      -4.04745104
C       -8.58325996     -10.44294138      -3.39290623
C       -9.67557476     -11.16211393      -2.90477766
C      -10.96176819     -10.65975714      -3.08129047
Br     -12.44454032     -11.61033151      -2.39647432
C      -11.16232942      -9.45870754      -3.75914384
C      -10.06567328      -8.74340473      -4.25123173
H       -8.88115973      -4.96470815      -0.66208399
H       -8.67304862      -6.79976101      -0.84584393
H       -6.78079068      -4.56235522      -1.78250474
H       -6.74803078      -7.64398913      -2.21546150
H       -5.37252973      -6.81420772      -1.51366976
H       -4.36342152      -2.93557688      -3.45091469
H       -2.94968443      -3.40907793      -4.38975041
H       -0.67864111      -2.89489874      -3.60683624
H        0.73847010      -1.46848387      -2.18552770
H       -2.67872167      -0.48363713       0.24842987
H       -4.10491722      -1.90485995      -1.17251407
H       -8.05609896      -7.19868810      -5.88311390
H       -8.42110180      -6.66821535      -4.21340276
H       -7.57756404     -10.83313287      -3.25475366
H       -9.51061849     -12.10416279      -2.38913905
H      -12.16643644      -9.07022427      -3.91026960
H      -10.26149946      -7.82180696      -4.79004504
C       -4.37363666       9.01553206       1.72614408
C       -4.05825898       7.90152912       2.40096511
C       -3.43376236       7.88722731       3.76902762
N       -4.06967893       6.91541338       4.64100528
C       -3.72225254       5.60631552       4.82419833
S       -2.44609174       4.81355839       3.97363045
C       -3.36492422       3.36405422       3.37775883
C       -2.50436095       2.49224787       2.49764275
C       -1.78792727       1.42101049       3.05160227
C       -0.98183699       0.61531045       2.24519393
C       -0.88175295       0.88175295       0.88175295
C       -1.57834892       1.94823811       0.31686378
C       -2.38615419       2.75271503       1.12381152
N       -4.55271098       5.03546753       5.66271551
N       -5.47875475       5.97705264       6.03764031
C       -5.19748381       7.10380811       5.41130786
C       -6.00186913       8.35446002       5.44502623
O       -5.20438018       9.34536624       6.08936865
C       -5.53410533      10.65082810       5.85480609
C       -4.57268362      11.57673129       6.26969266
C       -4.75676403      12.94191025       6.04379207
C       -5.91384021      13.38189467       5.40708091
Br      -6.15776968      15.22501235       5.06856412
C       -6.89318779      12.47058710       5.01640591
C       -6.70745352      11.10388349       5.24897272
H       -4.81619471       8.95689248       0.73486469
H       -4.18340843      10.00722793       2.12801721
H       -4.25435408       6.93785237       1.93344420
H       -3.48827597       8.86718955       4.25201590
H       -2.37111807       7.63823287       3.69105626
H       -4.24295178       3.69674053       2.81022079
H       -3.73747091       2.78222416       4.22881770
H       -1.85335274       1.20976567       4.11725768
H       -0.43659888      -0.21227207       2.69121465
H       -1.49763787       2.16164350      -0.74535243
H       -2.92205909       3.58620806       0.67402409
H       -6.92207770       8.19715330       6.01866997
H       -6.25607734       8.63126690       4.41537567
H       -3.66872829      11.23097085       6.76575143
H       -3.99388945      13.64636034       6.36367053
H       -7.80396960      12.81214864       4.53081207
H       -7.49964162      10.42578402       4.94792582
C        7.95996621      -0.89182753       6.26351906
C        7.17899510      -1.67496329       5.50679483
C        7.68877140      -2.77915082       4.62209508
N        6.88972789      -3.98495472       4.75141498
C        5.79425398      -4.34217205       4.01634035
S        5.09017443      -3.35851633       2.78458982
C        3.36774621      -3.37710233       3.36188873
C        2.49114335      -2.50071766       2.50239055
C        1.80304729      -3.04808478       1.40940796
C        0.99723147      -2.24161259       0.60349731
C        0.88175295      -0.88175295       0.88175295
C        1.56662564      -0.31959106       1.95723411
C        2.37107898      -1.12731858       2.76428317
N        5.31800825      -5.48467828       4.44820749
N        6.10249649      -5.89253428       5.49841694
C        7.03877019      -4.98295467       5.69087492
C        8.04177399      -4.97046684       6.78911455
O        9.32317460      -5.13118054       6.18475992
C       10.40455125      -4.72175527       6.91343299
C       11.59587552      -4.63583132       6.18740073
C       12.76713830      -4.18027459       6.79505346
C       12.74637789      -3.81757299       8.13886491
Br      14.31919411      -3.16990663       8.96224541
C       11.57164871      -3.92801810       8.88051399
C       10.40120896      -4.38966483       8.26943595
H        7.52829364      -0.10392741       6.87573083
H        9.04147412      -0.99784650       6.27933294
H        6.10379443      -1.50319408       5.51866213
H        8.72910474      -3.03279995       4.84557671
H        7.66502494      -2.45949233       3.57588993
H        3.32698644      -3.02330913       4.39961751
H        2.98430311      -4.40403316       3.36017651
H        1.89328794      -4.10796724       1.17912092
H        0.46896769      -2.68368443      -0.23711066
H        1.48269890       0.74187706       2.17310710
H        2.90582540      -0.67780066       3.59866518
H        7.85731082      -5.80109920       7.47949094
H        7.95351234      -4.02048778       7.32871979
H       11.60981447      -4.91835299       5.13728311
H       13.68154693      -4.10995324       6.21242016
H       11.55526761      -3.65811759       9.93354511
H        9.51037773      -4.48015218       8.88282154
