198
Properties=species:S:1:pos:R:3 pbc="F F F"
C        1.79289205       1.79289205      -1.79289205
C        3.05799765       2.16616177      -1.34402336
C        3.86064747       2.97006983      -2.14996939
C        3.39246486       3.39283468      -3.39596581
C        2.12275216       3.01911771      -3.84806393
O        1.79279397       3.50111503      -5.08616285
C        0.49351752       3.18240158      -5.57770684
C        0.31291258       3.83960077      -6.92466733
C        0.70352257       3.18615802      -8.10022109
C        0.54210588       3.80425225      -9.34216978
C       -0.00998631       5.08511999      -9.42658497
C       -0.40537069       5.75310012      -8.26132713
C       -0.22436678       5.13212869      -7.01556917
C       -0.99176705       7.12745549      -8.27652398
O       -0.81798744       7.83344885      -7.28957788
N       -1.72323591       7.46051215      -9.40616148
C       -2.39048181       8.68355709      -9.67987391
C       -2.34692088       9.76645304      -8.78838242
C       -3.01583316      10.96543713      -9.05749708
C       -3.73868479      11.10241642     -10.23181394
C       -3.79393394      10.04973147     -11.13842799
C       -3.12332103       8.83212355     -10.87778568
C       -3.24164593       7.75919537     -11.92972757
F       -4.53226747       7.38528890     -12.15086098
F       -2.75707558       8.15893671     -13.13825820
F       -2.57246490       6.60611080     -11.63201424
C        1.31991428       2.21342970      -3.03896040
H        3.42425536       1.83855607      -0.37477112
H        4.84910355       3.26928852      -1.81088536
H        4.02225363       4.02216592      -4.02128236
H       -0.28084841       3.55011947      -4.89232154
H        0.38007837       2.09665110      -5.68897065
H        1.14835119       2.19376142      -8.05248496
H        0.86124448       3.28917667     -10.24567598
H       -0.08743496       5.55121026     -10.40448385
H       -0.50469360       5.66406686      -6.10666600
H       -1.84498072       6.72034511     -10.09011716
H       -1.79523737       9.71786339      -7.85419625
H       -2.95958595      11.77784280      -8.33694461
H       -4.36091324      10.16437688     -12.06225582
H        0.33008723       1.90024015      -3.35099530
C       -4.43025957      12.33369090     -10.51339428
C       -5.00945344      13.36488328     -10.74921780
Br      -5.94596094      15.03223414     -11.13052450
C       -1.79289205      -1.79289205      -1.79289205
C       -2.85249537      -2.49428261      -1.22140481
C       -3.65561896      -3.29757674      -2.02749099
C       -3.39313430      -3.39221878      -3.39591229
C       -2.32984933      -2.68887767      -3.97120681
O       -2.18857837      -2.87083628      -5.32065719
C       -1.09563562      -2.20746737      -5.95052295
C       -1.09079441      -2.57062444      -7.41576183
C       -1.82530752      -1.82124711      -8.34334705
C       -1.82367425      -2.16883904      -9.69601463
C       -1.08963328      -3.27167727     -10.14040810
C       -0.35018011      -4.03227787      -9.22659858
C       -0.37036510      -3.68667268      -7.86629331
C        0.44745231      -5.22982769      -9.62983705
O        0.60823462      -6.11552711      -8.79774680
N        0.97231028      -5.20300069     -10.91274731
C        1.76761790      -6.19351380     -11.54705330
C        2.09857878      -7.39833562     -10.90815774
C        2.89231529      -8.36612973     -11.53328661
C        3.36580307      -8.14468073     -12.81666791
C        3.04812230      -6.96389179     -13.47845603
C        2.24777200      -5.97706958     -12.85729063
C        1.95689715      -4.73859511     -13.66557906
F        3.08863604      -4.07041364     -14.02210481
F        1.30615427      -5.01700719     -14.82926641
F        1.17678353      -3.81995803     -13.02248564
C       -1.52618968      -1.88437381      -3.16174089
H       -3.05844818      -2.42230595      -0.15682841
H       -4.48464333      -3.85088082      -1.59375328
H       -4.02206535      -4.02233623      -4.02130033
H       -0.14349165      -2.51716026      -5.50094069
H       -1.19645767      -1.11944561      -5.84979683
H       -2.41416771      -0.96732210      -8.01310775
H       -2.40863214      -1.58447325     -10.40299175
H       -1.13968054      -3.53594248     -11.19263613
H        0.18126283      -4.29632489      -7.15097720
H        0.81900336      -4.34740763     -11.43707730
H        1.75477787      -7.62773203      -9.90386810
H        3.12875558      -9.28383884     -11.00011820
H        3.42017556      -6.79665886     -14.48923617
H       -0.69258466      -1.32198618      -3.56675185
C        4.18429735      -9.13666843     -13.46445453
C        4.86978632      -9.96745814     -14.00697582
Br       5.97816399     -11.31077482     -14.88418687
C       -1.79289205       1.79289205       1.79289205
C       -1.26701508       2.96162126       2.33954644
C       -2.07306074       3.76450019       3.14312575
C       -3.39596909       3.39280083       3.39249544
C       -3.92543630       2.21989729       2.84460021
O       -5.23356792       1.97848954       3.16801438
C       -5.81074365       0.77524032       2.66764197
C       -7.23089486       0.67641355       3.16987227
C       -8.28762808       1.25033133       2.45194226
C       -9.59785898       1.16310235       2.92756658
C       -9.87018797       0.50290841       4.12862227
C       -8.82564459      -0.07603538       4.85944735
C       -7.50946156       0.03045123       4.38341830
C       -9.04267069      -0.78648182       6.15602356
O       -8.12410566      -0.78683295       6.96776659
N      -10.26612530      -1.42251204       6.29982446
C      -10.73070676      -2.17105499       7.41329742
C       -9.95907695      -2.32627420       8.57511182
C      -10.41671503      -3.07464877       9.66503479
C      -11.66276347      -3.67862315       9.61140525
C      -12.45368538      -3.53626252       8.47680265
C      -12.00229399      -2.78352153       7.36781575
C      -12.94094733      -2.68623203       6.19256171
F      -13.24380516      -3.90431358       5.66439081
F      -14.13304365      -2.11673192       6.52380760
F      -12.45984784      -1.94502328       5.15083558
C       -3.11609476       1.41666780       2.03954182
H       -0.23786974       3.25268338       2.14702943
H       -1.67449251       4.67816293       3.57662199
H       -4.02128303       4.02215900       4.02225988
H       -5.24560325      -0.09911542       3.01510477
H       -5.81655141       0.77880149       1.57034722
H       -8.09248164       1.78061440       1.52150152
H      -10.40686546       1.62416468       2.36506699
H      -10.89490999       0.48533755       4.48801162
H       -6.69318364      -0.39438617       4.96724178
H      -10.87620058      -1.39952908       5.48881007
H       -8.97647047      -1.87470468       8.67505648
H       -9.78435798      -3.17326063      10.54410411
H      -13.43451305      -4.01039877       8.44160518
H       -3.48654092       0.50011727       1.59466450
C      -12.13833615      -4.45119896      10.72968842
C      -12.53662827      -5.09823120      11.66625058
Br     -13.18063294      -6.14442761      13.18059237
C        1.79289205      -1.79289205       1.79289205
C        1.20614757      -2.77976596       2.58226925
C        2.01223444      -3.58304724       3.38540501
C        3.39585239      -3.39333946       3.39207351
C        3.98647907      -2.40311321       2.60034152
O        5.34963973      -2.32853412       2.70189799
C        5.99850380      -1.30968136       1.94544077
C        7.48003515      -1.36798470       2.22916084
C        8.32350963      -2.19243182       1.47396023
C        9.69176122      -2.24842603       1.74834067
C       10.23600954      -1.48284651       2.78286260
C        9.40716431      -0.65365163       3.54824063
C        8.03042135      -0.61561753       3.27729220
C        9.91910119       0.18269120       4.67580244
O        9.14793816       0.43702163       5.59412276
N       11.22460770       0.63232427       4.55115429
C       11.95513874       1.44231074       5.46012119
C       11.40362055       1.87243635       6.67673037
C       12.12363951       2.68016250       7.56362404
C       13.41592300       3.06818341       7.24780599
C       13.99232531       2.65128985       6.05319006
C       13.27483439       1.83573284       5.14748665
C       13.99547740       1.43424423       3.88604384
F       14.37362004       2.50690661       3.13716897
F       15.13666269       0.73478831       4.13824495
F       13.26104092       0.64373046       3.04834968
C        3.17698310      -1.59917171       1.79614958
H        0.12974846      -2.92900807       2.57882602
H        1.56677500      -4.35568041       4.00682202
H        4.02131788      -4.02200785       4.02237618
H        5.61843989      -0.31859303       2.22455968
H        5.83146264      -1.46250291       0.87173457
H        7.91481930      -2.80643042       0.67334784
H       10.33254868      -2.90255731       1.16099115
H       11.29728118      -1.57789356       2.99308441
H        7.38096747       0.00710079       3.89217258
H       11.69102935       0.40437507       3.67882727
H       10.39694655       1.59842522       6.97830094
H       11.65633216       2.99480221       8.49367151
H       15.01047491       2.95641522       5.81165977
H        3.59353494      -0.82083859       1.16694915
C       14.16121257       3.90060652       8.15621956
C       14.78539259       4.59776087       8.91701592
Br      15.79463890       5.72500050      10.14715930
C       -0.00445707       0.01189536      -1.78238275
H       -0.66409135       0.67374010      -2.43557963
H        0.65740317      -0.63156657      -2.45157240
C       -0.90989263      -0.90692880      -0.91072765
C        0.90977584       0.90977584      -0.90977584
C       -0.00465871       1.77757030       0.00794375
H       -0.66225468       2.44313916      -0.64384735
H        0.64322798       2.43503045       0.67728295
C       -1.78241447       0.00034974      -0.00472694
H       -2.45427497      -0.65498947       0.64260836
H       -2.43311707       0.67328779      -0.65473579
C       -0.91132561       0.90220522       0.91563759
C       -0.01476271      -0.02253852       1.78660255
H       -0.67934791      -0.69751639       2.42135241
H        0.63392994       0.61504881       2.47327442
C        0.01484550      -1.77751727      -0.01636693
H        0.67870853      -2.42144646      -0.68295456
H       -0.62264859      -2.45592969       0.64226336
C        1.78714474       0.01002794       0.00389507
H        2.44202412       0.67113390       0.66197326
H        2.45385902      -0.65136977      -0.64189061
C        0.91606151      -0.90478549       0.90901405
