177
Properties=species:S:1:pos:R:3 pbc="F F F"
C        0.00000000       0.00000000       0.00000000
C        0.88298802       0.88298802      -0.88298802
C        2.14809363       1.25625774      -0.43411934
C        2.95074344       2.06016581      -1.24006537
C        2.48256084       2.48293066      -2.48606179
C        1.21284814       2.10921368      -2.93815991
O        0.88288994       2.59121100      -4.17625883
C       -0.41638651       2.27249756      -4.66780282
C       -0.59699144       2.92969674      -6.01476331
C       -0.20638145       2.27625399      -7.19031706
C       -0.36779814       2.89434823      -8.43226576
C       -0.91989034       4.17521596      -8.51668095
C       -1.31527471       4.84319610      -7.35142311
C       -1.13427080       4.22222467      -6.10566515
C       -1.90167107       6.21755147      -7.36661996
O       -1.72789146       6.92354483      -6.37967385
N       -2.63313993       6.55060813      -8.49625745
C       -3.30038584       7.77365307      -8.76996989
C       -3.25682491       8.85654901      -7.87847839
C       -3.92573718      10.05553310      -8.14759306
C       -4.64858882      10.19251239      -9.32190992
C       -4.70383796       9.13982745     -10.22852396
C       -4.03322505       7.92221953      -9.96788166
C       -4.15154995       6.84929135     -11.01982355
F       -5.44217150       6.47538487     -11.24095695
F       -3.66697960       7.24903268     -12.22835417
F       -3.48236893       5.69620678     -10.72211022
C        0.41001026       1.30352567      -2.12905637
H        2.51435133       0.92865204       0.53513290
H        3.93919952       2.35938450      -0.90098134
H        3.11234961       3.11226189      -3.11137834
H       -1.19075243       2.64021544      -3.98241752
H       -0.52982565       1.18674707      -4.77906662
H        0.23844716       1.28385739      -7.14258094
H       -0.04865954       2.37927265      -9.33577196
H       -0.99733899       4.64130624      -9.49457983
H       -1.41459762       4.75416283      -5.19676197
H       -2.75488474       5.81044109      -9.18021314
H       -2.70514139       8.80795937      -6.94429222
H       -3.86948998      10.86793878      -7.42704059
H       -5.27081727       9.25447286     -11.15235180
H       -0.57981679       0.99033613      -2.44109127
C       -5.34016359      11.42378688      -9.60349025
C       -5.91935746      12.45497926      -9.83931378
Br      -6.85586496      14.12233012     -10.22062048
C       -0.88298802      -0.88298802      -0.88298802
C       -0.43459179      -1.25535045      -2.14852847
C       -1.24021988      -2.05986908      -2.95088565
C       -2.48505338      -2.48486719      -2.48163272
C       -2.93673396      -2.11195206      -1.21153572
O       -4.17165626      -2.60004970      -0.87865381
C       -4.69652881      -2.21733264       0.38994758
C       -6.07288044      -2.81808956       0.54350140
C       -6.24032707      -4.10059897       1.08073643
C       -7.51609502      -4.65374726       1.21102644
C       -8.64242166      -3.93374559       0.80416068
C       -8.49322607      -2.65049670       0.26437827
C       -7.20651466      -2.10817159       0.12106724
C       -9.65162599      -1.82946392      -0.20141044
O       -9.45340217      -1.02080813      -1.10111691
N      -10.84745734      -2.03540302       0.46913470
C      -12.09285380      -1.39244213       0.24205881
C      -12.26043579      -0.44151098      -0.77625573
C      -13.48675400       0.19770268      -0.98833766
C      -14.57219480      -0.10995272      -0.18368598
C      -14.43912181      -1.05386545       0.82847381
C      -13.20472576      -1.70623800       1.05408763
C      -13.17139823      -2.71744314       2.17127643
F      -13.48239267      -2.17096904       3.37919138
F      -14.05947066      -3.73258707       1.98165047
F      -11.95857584      -3.32171879       2.34434656
C       -2.12791672      -1.30571425      -0.40896134
H        0.53356696      -0.92564484      -2.51579260
H       -0.90255956      -2.35635371      -3.94065209
H       -3.11166843      -3.11170481      -3.11261660
H       -4.77149277      -1.12488846       0.46450071
H       -4.05190395      -2.58317816       1.19909407
H       -5.37327106      -4.68161062       1.38999619
H       -7.62957866      -5.65581784       1.61901145
H       -9.61614910      -4.40784664       0.88544866
H       -7.08837764      -1.12153561      -0.32641394
H      -10.81115421      -2.67840902       1.25379373
H      -11.44661690      -0.16177002      -1.43872328
H      -13.57159368       0.93195868      -1.78585439
H      -15.29724879      -1.29468169       1.45592308
H       -2.43906325      -0.99423071       0.58168335
C      -15.83641778       0.54582338      -0.39651914
C      -16.89520453       1.09503587      -0.57476691
Br     -18.60717315       1.98306601      -0.86297849
C       -0.88298802       0.88298802       0.88298802
C       -0.85137308       2.26644503       0.72065260
C       -1.65663584       3.06869885       1.52563993
C       -2.48558818       2.48178402       2.48418109
C       -2.51850336       1.09320912       2.64850926
O       -3.37590246       0.65351763       3.62093968
C       -3.41877240      -0.75145287       3.85659434
C       -4.38265345      -1.02170365       4.98651881
C       -5.74595345      -1.22060556       4.73484171
C       -6.63340673      -1.46075830       5.78616741
C       -6.17118115      -1.50332877       7.10415419
C       -4.81151668      -1.30601453       7.37384235
C       -3.92863378      -1.04845156       6.31343680
C       -4.25050360      -1.32668543       8.75868218
O       -3.24979131      -0.65402054       8.97955644
N       -4.90199616      -2.15123595       9.66296544
C       -4.58131636      -2.36723734      11.02915810
C       -3.51948030      -1.69675211      11.65547431
C       -3.20035943      -1.92190876      12.99893832
C       -3.94603451      -2.82268761      13.74248659
C       -5.00917671      -3.49641190      13.15174864
C       -5.34134142      -3.27881136      11.79434607
C       -6.51618863      -4.05418106      11.25555736
F       -6.33536443      -5.40124227      11.34004817
F       -7.66885198      -3.78969653      11.93125180
F       -6.79791938      -3.80440935       9.94243804
C       -1.71081819       0.29095502       1.84081910
H       -0.20696775       2.72530609      -0.02440336
H       -1.64033357       4.14938452       1.40984727
H       -3.11150585       3.11257061       3.11191338
H       -2.42592465      -1.12811332       4.13406920
H       -3.75942572      -1.28184257       2.95840490
H       -6.12613623      -1.17699414       3.71574340
H       -7.69153747      -1.60148194       5.57632953
H       -6.89362243      -1.65571110       7.90063575
H       -2.87559342      -0.86547503       6.52620879
H       -5.66044967      -2.71104091       9.28636073
H       -2.90192922      -0.97875609      11.12393707
H       -2.36627149      -1.38437679      13.44359468
H       -5.59461956      -4.20100950      13.74239733
H       -1.70612392      -0.78904795       1.93453464
C       -3.62126222      -3.05941603      15.12526735
C       -3.34926542      -3.25767608      16.28334623
Br      -2.90946961      -3.57824581      18.15586183
C        0.88298802      -0.88298802       0.88298802
C        0.88134406      -0.69374392       2.26338273
C        1.68599606      -1.49927960       3.06569896
C        2.48376931      -2.48581411       2.48196987
C        2.48667605      -2.67708459       1.09646109
O        3.31186770      -3.67843166       0.66006041
C        3.38243122      -3.88922234      -0.74773969
C        4.37161313      -4.99643108      -1.02057560
C        3.96275864      -6.33583777      -1.03840681
C        4.88535039      -7.35561529      -1.28214984
C        6.23008417      -7.05126961      -1.50934721
C        6.65619690      -5.71764318      -1.49449558
C        5.72612662      -4.69960361      -1.23211122
C        8.07945654      -5.32095427      -1.71791046
O        8.47453662      -4.28865189      -1.18786129
N        8.81478627      -6.14996646      -2.55102707
C       10.17336541      -6.00847923      -2.93860752
C       10.97515554      -4.96158611      -2.45853915
C       12.31007990      -4.82000772      -2.85269864
C       12.86843432      -5.73173708      -3.73433791
C       12.10131720      -6.78425086      -4.22105462
C       10.75044702      -6.93791832      -3.83148921
C       10.01196508      -8.11696348      -4.41136362
F        9.96221012      -8.08377711      -5.77181690
F       10.59322599      -9.30567705      -4.08849579
F        8.71358213      -8.22250901      -4.00014307
C        1.67959692      -1.86885032       0.29414507
H        0.26155727       0.07341518       2.71972838
H        1.69475294      -1.36098822       4.14382420
H        3.11202848      -3.11144415       3.11251721
H        3.71462282      -2.97704435      -1.25978665
H        2.40049312      -4.17848793      -1.14299301
H        2.92188134      -6.59260207      -0.84959792
H        4.55522140      -8.39219107      -1.28102741
H        6.92730116      -7.87039816      -1.65915224
H        6.06339511      -3.66412220      -1.19119013
H        8.30293035      -6.91387673      -2.98103759
H       10.59287239      -4.21881955      -1.76458174
H       12.89433882      -3.99123746      -2.46008690
H       12.54678258      -7.50057475      -4.91134995
H        1.65121416      -1.98383397      -0.78343752
C       14.24149254      -5.59016394      -4.14454294
C       15.39142880      -5.47159642      -4.48808965
Br      17.25077847      -5.27988279      -5.04357563
