169
Properties=species:S:1:pos:R:3 pbc="F F F"
C        0.00000000       0.00000000       0.00000000
C        0.88298802       0.88298802      -0.88298802
C        2.14809363       1.25625774      -0.43411934
C        2.95074344       2.06016581      -1.24006537
C        2.48256084       2.48293066      -2.48606179
C        1.21284814       2.10921368      -2.93815991
O        0.88288994       2.59121100      -4.17625883
C       -0.41638651       2.27249756      -4.66780282
C       -0.59699144       2.92969674      -6.01476331
C       -0.20638145       2.27625399      -7.19031706
C       -0.36779814       2.89434823      -8.43226576
C       -0.91989034       4.17521596      -8.51668095
C       -1.31527471       4.84319610      -7.35142311
C       -1.13427080       4.22222467      -6.10566515
C       -1.90167107       6.21755147      -7.36661996
O       -1.72789146       6.92354483      -6.37967385
N       -2.63313993       6.55060813      -8.49625745
C       -3.30038584       7.77365307      -8.76996989
C       -3.25682491       8.85654901      -7.87847839
C       -3.92573718      10.05553310      -8.14759306
C       -4.64858882      10.19251239      -9.32190992
Br      -5.55543269      11.80705034      -9.69113883
C       -4.70383796       9.13982745     -10.22852396
C       -4.03322505       7.92221953      -9.96788166
C       -4.15154995       6.84929135     -11.01982355
F       -5.44217150       6.47538487     -11.24095695
F       -3.66697960       7.24903268     -12.22835417
F       -3.48236893       5.69620678     -10.72211022
C        0.41001026       1.30352567      -2.12905637
H        2.51435133       0.92865204       0.53513290
H        3.93919952       2.35938450      -0.90098134
H        3.11234961       3.11226189      -3.11137834
H       -1.19075243       2.64021544      -3.98241752
H       -0.52982565       1.18674707      -4.77906662
H        0.23844716       1.28385739      -7.14258094
H       -0.04865954       2.37927265      -9.33577196
H       -0.99733899       4.64130624      -9.49457983
H       -1.41459762       4.75416283      -5.19676197
H       -2.75488474       5.81044109      -9.18021314
H       -2.70514139       8.80795937      -6.94429222
H       -3.86948998      10.86793878      -7.42704059
H       -5.27081727       9.25447286     -11.15235180
H       -0.57981679       0.99033613      -2.44109127
C       -0.88298802      -0.88298802      -0.88298802
C       -1.98399615      -1.52938787      -0.32508668
C       -2.78702824      -2.33278242      -1.13116396
C       -2.48310795      -2.48241011      -2.48603523
C       -1.37823099      -1.83431210      -3.04767863
O       -1.19897733      -2.06653365      -4.38484879
C       -0.06404087      -1.46119045      -4.99868255
C       -0.02341518      -1.87385950      -6.45019393
C       -0.70119540      -1.13269562      -7.42629858
C       -0.66694264      -1.52588871      -8.76598449
C        0.04342222      -2.66669475      -9.14873404
C        0.72620828      -3.41969943      -8.18585335
C        0.67310620      -3.02762219      -6.83910302
C        1.49552561      -4.65580223      -8.52222374
O        1.59872256      -5.51753604      -7.65651373
N        2.06284284      -4.68980967      -9.78675882
C        2.84445767      -5.72687746     -10.36081733
C        3.11315104      -6.91952724      -9.67182630
C        3.89366663      -7.93353815     -10.23751746
C        4.41629573      -7.77146976     -11.51065946
Br       5.47209176      -9.13487986     -12.27996839
C        4.16080335      -6.60403961     -12.22127719
C        3.37445771      -5.57093922     -11.66039462
C        3.15251174      -4.35174336     -12.51833333
F        4.31738723      -3.73358471     -12.85797285
F        2.53125945      -4.64799040     -13.69367631
F        2.38334449      -3.38667194     -11.93262062
C       -0.57473337      -1.02961201      -2.23824693
H       -2.22223833      -1.41457527       0.72894312
H       -3.64816190      -2.84351186      -0.70789160
H       -3.11219565      -3.11240593      -3.11138826
H        0.86175752      -1.78654106      -4.50709699
H       -0.13111002      -0.36765167      -4.93722635
H       -1.27124537      -0.24916960      -7.14447052
H       -1.20818368      -0.94697223      -9.51122915
H        0.01901462      -2.96475412     -10.19280757
H        1.17992192      -3.63041902      -6.08583007
H        1.95598286      -3.84794279     -10.34380956
H        2.72896025      -7.10327120      -8.67279925
H        4.08116746      -8.83988191      -9.66677494
H        4.57131708      -6.48353802     -13.22378645
H        0.29034083      -0.50898407      -2.63296737
C       -0.88298802       0.88298802       0.88298802
C       -2.12358190       1.30517616       0.40971265
C       -2.92629170       2.10899052       1.21569240
C       -2.48265173       2.48283192       2.48606964
C       -1.23756052       2.05997280       2.96268842
O       -0.93013847       2.49721953       4.22300177
C        0.34489775       2.12735473       4.74145689
C        0.50486480       2.74092080       6.11141261
C        0.06218931       2.06625755       7.25612136
C        0.20492236       2.64425830       8.51947990
C        0.79013737       3.90573688       8.65640707
C        1.23769424       4.59449806       7.52254068
C        1.07541923       4.01429625       6.25474199
C        1.86181670       5.95034193       7.59397513
O        1.73658298       6.68853847       6.62337172
N        2.56937266       6.23020262       8.75289569
C        3.26254517       7.42525139       9.08053089
C        3.27525995       8.53359233       8.21987012
C        3.96955397       9.70468091       8.54226205
C        4.66169391       9.78761691       9.73991050
Br       5.60251362      11.36422238      10.18104772
C        4.66106976       8.70869901      10.61688420
C        3.96430772       7.51881275      10.30237111
C        4.02193424       6.41375699      11.32574219
F        5.29459409       5.99659771      11.57216671
F        3.51403351       6.79321158      12.53122919
F        3.32948967       5.28934247      10.97609527
C       -0.43462150       1.25446328       2.15350753
H       -2.47071095       1.01568630      -0.57852677
H       -3.89571963       2.44609720       0.85774854
H       -3.11232397       3.11228927       3.11137659
H        1.14880166       2.49164090       4.08904128
H        0.42449714       1.03607780       4.82440739
H       -0.40879960       1.08888064       7.16720525
H       -0.15457869       2.11343104       9.39837533
H        0.85233615       4.34171111       9.64917211
H        1.39677038       4.56324699       5.36985057
H        2.65041902       5.46788494       9.41830357
H        2.74968673       8.52727004       7.26952689
H        3.95704184      10.53831248       7.84421875
H        5.20408331       8.78087200      11.55921870
H        0.53656603       0.90411801       2.48405863
C        0.88298802      -0.88298802       0.88298802
C        2.23270705      -1.03389061       0.57187305
C        3.03513079      -1.83823415       1.37760967
C        2.48218670      -2.48340975       2.48595684
C        1.12748512      -2.33307519       2.79966142
O        0.71956857      -3.01857649       3.91221471
C       -0.66135655      -2.93136445       4.25390597
C       -0.91141538      -3.78601001       5.47287399
C       -0.76095368      -3.25930380       6.76183949
C       -0.98481492      -4.05862242       7.88500834
C       -1.36009820      -5.39632465       7.73578012
C       -1.51448782      -5.93932680       6.45450552
C       -1.27131121      -5.13427198       5.33065824
C       -1.90211336      -7.36348483       6.22112888
O       -1.51349280      -7.89941097       5.18940904
N       -2.71212963      -7.93634924       7.18950605
C       -3.23161256      -9.25746033       7.21738935
C       -2.93031706     -10.19288689       6.21563267
C       -3.45421532     -11.48991458       6.24168973
C       -4.28837893     -11.87521094       7.27900148
Br      -5.00067558     -13.62346255       7.31996951
C       -4.59881091     -10.97299463       8.29032972
C       -4.07685302      -9.65863048       8.27509867
C       -4.46974582      -8.76433343       9.42297733
F       -5.81695844      -8.58432832       9.50680045
F       -4.08490960      -9.26591165      10.62940520
F       -3.93574393      -7.50842033       9.36327167
C        0.32501341      -1.52656726       1.99101163
H        2.66503955      -0.53300096      -0.29017003
H        4.08933464      -1.96519466       1.14503605
H        3.11245547      -3.11212872       3.11140564
H       -1.28817622      -3.29184161       3.42821513
H       -0.93691890      -1.89343895       4.47946800
H       -0.45555348      -2.22324743       6.89719154
H       -0.85235589      -3.63887471       8.87986624
H       -1.49042139      -5.99942919       8.62953928
H       -1.36262987      -5.56512866       4.33382839
H       -3.01752803      -7.31850030       7.93479722
H       -2.28131080      -9.94856035       5.37986065
H       -3.19872822     -12.18164828       5.44256932
H       -5.25243291     -11.28266695       9.10577334
H       -0.72918820      -1.38229142       2.19850740
