189
Properties=species:S:1:pos:R:3 pbc="F F F"
C        0.00000000       0.00000000       0.00000000
C        0.88171052       0.88171052      -0.88171052
C        0.50889966       1.13529123      -2.20136831
C        1.31194595       1.94302634      -3.01894280
C        2.48907986       2.49503904      -2.51452775
N        3.37590018       3.31214471      -3.24843471
C        3.24757876       3.75051407      -4.55335371
O        2.29157416       3.51506615      -5.28666101
C        4.44056986       4.59601935      -5.04777702
C        4.60390287       5.87397963      -4.19104642
C        5.78880319       6.71318762      -4.69580770
H        5.89931609       7.60557670      -4.06927572
C        7.07102928       5.86927945      -4.62140888
C        6.92847424       4.61347734      -5.49542221
H        7.84887161       4.02119943      -5.44115890
C        5.74705323       3.77291459      -4.99468405
C        6.67328162       5.03500971      -6.94887120
C        5.38011722       5.89360620      -7.06359937
C        5.53691145       7.13606245      -6.15223075
C        4.20412235       5.03596527      -6.51881723
N        5.15254802       6.32460203      -8.44707850
C        3.97604096       6.62594532      -9.06672868
N        4.20782879       7.01902899     -10.29763576
C        5.56996647       6.96069158     -10.38832052
N        6.19080853       6.56276743      -9.27441464
C        2.84012847       2.22155600      -1.18396697
F        3.97207542       2.74463348      -0.68474797
C        2.05110450       1.42400952      -0.36256680
H       -0.40480561       0.71045699      -2.61169925
H        0.99074583       2.11412183      -4.04172733
H        4.19424829       3.60215800      -2.72511793
H        4.76937395       5.62475263      -3.13597116
H        3.68173686       6.46898455      -4.22173704
H        7.93018539       6.46344129      -4.95606630
H        7.26985253       5.58080440      -3.58178814
H        5.64555969       2.86524024      -5.60413003
H        5.95970640       3.43177429      -3.97425592
H        6.59344065       4.14461643      -7.58682647
H        7.54645406       5.59623079      -7.30720938
H        4.63656107       7.76266145      -6.20313705
H        6.36785891       7.76318860      -6.50170398
H        3.26450889       5.60267098      -6.56889635
H        4.06030737       4.15419629      -7.15921679
H        3.00402386       6.55015702      -8.60020695
H        2.35949749       1.23955684       0.65998795
C        6.28307313       7.31030099     -11.58950832
C        6.88029997       7.60309887     -12.59550311
Br       7.84596524       8.07652827     -14.22211160
C       -0.88171052      -0.88171052      -0.88171052
C       -2.02900457      -1.46822935      -0.34832528
C       -2.84462468      -2.27973955      -1.14955086
C       -2.50954929      -2.50465545      -2.48444192
N       -3.24997617      -3.30916722      -3.37733621
C       -4.43393736      -3.98117892      -3.13633026
O       -5.06098105      -3.95098998      -2.08133029
C       -4.93813515      -4.80780378      -4.33842730
C       -5.21485622      -3.89638668      -5.55768601
C       -5.72404657      -4.72703950      -6.74671245
H       -5.90027624      -4.06881264      -7.60507962
C       -4.66724525      -5.78074185      -7.11373052
C       -4.41000775      -6.71006594      -5.91730009
H       -3.66017849      -7.46134455      -6.18970691
C       -3.90131085      -5.88487633      -4.72846470
C       -5.72004519      -7.40861234      -5.52850500
C       -6.81654460      -6.37081766      -5.14996053
C       -7.03582352      -5.42931299      -6.36006814
C       -6.26594723      -5.52440946      -3.96854817
N       -8.07894325      -7.03569279      -4.80959252
C       -9.07668499      -6.60671369      -3.98531628
N      -10.06198970      -7.47420337      -3.98830047
C       -9.62674201      -8.43175806      -4.86047850
N       -8.42956979      -8.19467133      -5.40374947
C       -1.34875654      -1.90324816      -2.99364674
F       -1.01209341      -2.11233243      -4.27703105
C       -0.53304102      -1.09472118      -2.20991861
H       -2.30369194      -1.30540450       0.69174580
H       -3.72700279      -2.72204435      -0.69754785
H       -2.84137066      -3.37760402      -4.30254954
H       -4.30963528      -3.35770081      -5.86276165
H       -5.95200333      -3.12679892      -5.29365619
H       -5.00641608      -6.36618554      -7.97709134
H       -3.73377896      -5.28721866      -7.41144746
H       -3.70055040      -6.54219823      -3.87218132
H       -2.93924089      -5.43101126      -4.99548446
H       -5.54232849      -8.09377258      -4.68878248
H       -6.04704489      -8.03036688      -6.37248245
H       -7.80050481      -4.67718289      -6.12467188
H       -7.41664988      -5.99587736      -7.22022424
H       -7.00183716      -4.76640170      -3.66783736
H       -6.11704136      -6.16726432      -3.08941477
H       -9.04798033      -5.68523711      -3.42117039
H        0.35414374      -0.64878757      -2.64442253
C      -10.40277534      -9.60259665      -5.17751045
C      -11.05270326     -10.58317397      -5.44302472
Br     -12.10358173     -12.16868456      -5.87233882
C       -0.88171052       0.88171052       0.88171052
C       -0.57397650       1.03879397       2.23278874
C       -1.37761980       1.84570302       3.05059228
C       -2.49025135       2.49359956       2.51479575
N       -3.37192404       3.31946709       3.24508847
C       -3.29668998       3.67599937       4.57875720
O       -2.40032206       3.34391878       5.34906047
C       -4.46778277       4.56162821       5.05495525
C       -4.50864401       5.89281178       4.26747312
C       -5.67263509       6.77110924       4.75405419
H       -5.69596710       7.70203243       4.17616897
C       -6.99330515       6.00992260       4.55848987
C       -6.97293831       4.70108762       5.36334786
H       -7.92012786       4.16819153       5.22291056
C       -5.81272838       3.82142107       4.88050243
C       -6.78097017       5.02505391       6.85113845
C       -5.45096194       5.79798380       7.08837704
C       -5.48405778       7.09644270       6.24470418
C       -4.29451004       4.90407352       6.56032130
N       -5.28186268       6.13691848       8.50544740
C       -4.12905639       6.33316280       9.20649576
N       -4.41089276       6.66997070      10.44363008
C       -5.77713838       6.68726851      10.45457168
N       -6.35229602       6.38949849       9.28619609
C       -2.77676113       2.31600177       1.15288854
F       -3.84627663       2.93209840       0.62308185
C       -1.98629923       1.52028980       0.33109179
H        0.28875366       0.53847273       2.66763156
H       -1.10838268       1.94018723       4.09802509
H       -4.14045692       3.68608145       2.69498585
H       -4.62511797       5.71305257       3.19192721
H       -3.55814638       6.42963651       4.38467555
H       -7.83624803       6.63422355       4.87922139
H       -7.14612400       5.79215404       3.49416704
H       -5.79822889       2.87674946       5.43995161
H       -5.98340393       3.55090804       3.83142464
H       -6.78877237       4.09729529       7.43881589
H       -7.64112033       5.61603026       7.19274363
H       -4.55473568       7.66491841       6.38270549
H       -6.29792181       7.75110520       6.58372447
H       -3.32934739       5.41057980       6.69614903
H       -4.23821317       3.98099346       7.15451382
H       -3.13691203       6.22620736       8.79126844
H       -2.24353038       1.41172286      -0.71618687
C       -6.53937039       7.01084974      11.63266232
C       -7.17773969       7.28184903      12.61931323
Br      -8.20992886       7.72003195      14.21464430
C        0.88171052      -0.88171052       0.88171052
C        2.23161114      -1.04296664       0.57098142
C        3.04915615      -1.85079178       1.37396717
C        2.51352924      -2.49808727       2.48703014
N        3.23919172      -3.34036148       3.35692640
C        4.58494646      -3.65406850       3.31243159
O        5.38849041      -3.20420380       2.50060711
C        5.02952178      -4.65174850       4.40309595
C        4.78142949      -4.07167231       5.81582710
C        5.23456019      -5.06849693       6.89474139
H        5.03792797      -4.64849833       7.88774221
C        4.45364931      -6.38141185       6.72665645
C        4.72008515      -6.98040773       5.33688091
H        4.16446422      -7.91866237       5.22810336
C        4.26887193      -5.98865646       4.25712348
C        6.22269675      -7.25185767       5.18260811
C        7.04764772      -5.94230301       5.34737206
C        6.73936807      -5.34366369       6.74217289
C        6.54974411      -4.94155245       4.26760830
N        8.48609061      -6.20550681       5.23263114
C        9.47941821      -5.36609659       4.82320016
N       10.64059329      -5.97205646       4.91184379
C       10.30949733      -7.20132112       5.40816012
N        9.00632759      -7.38117714       5.64048586
C        1.15201260      -2.31910554       2.77453330
F        0.62147578      -2.93778933       3.84219177
C        0.33148750      -1.51888764       1.98730567
H        2.66511331      -0.54739584      -0.29515852
H        4.09380539      -1.95513918       1.09765042
H        2.67855067      -3.74431741       4.09865613
H        3.72010185      -3.84153246       5.96846343
H        5.31836695      -3.12121901       5.93287248
H        4.74915954      -7.09508126       7.50545216
H        3.37973931      -6.19761423       6.85509153
H        4.44180008      -6.41357325       3.25955662
H        3.18548147      -5.83972604       4.34052910
H        6.42135413      -7.70254249       4.20098693
H        6.52083079      -7.99686851       5.93219493
H        7.30084939      -4.41159154       6.88991865
H        7.06947250      -6.02991844       7.53336054
H        7.09644199      -3.99219227       4.34744195
H        6.77220468      -5.33565760       3.26585818
H        9.31984476      -4.35326396       4.48127911
H       -0.71495712      -1.40736539       2.24665810
C       11.29081030      -8.22215915       5.66991299
C       12.11265992      -9.07711100       5.88913103
Br      13.44152124     -10.45949582       6.24358805
