181
Properties=species:S:1:pos:R:3 pbc="F F F"
C        0.00000000       0.00000000       0.00000000
C        0.87821341       0.87821341      -0.87821341
N        0.71740629       2.23261797      -0.96492314
C        1.65688012       2.59055351      -1.80875280
N        2.35450916       1.49449904      -2.21575388
N        1.86893947       0.38207285      -1.62545067
C        3.48463132       1.39663617      -3.14448922
C        3.91499819       2.77547432      -3.71512000
C        5.09629978       2.62328224      -4.68548809
H        5.38268373       3.60797563      -5.07200303
C        4.68573794       1.71265369      -5.84993953
C        4.28702167       0.33137411      -5.31480338
H        3.99500068      -0.31524464      -6.14990965
C        5.47746700      -0.29548267      -4.57033267
C        5.90894249       0.59850282      -3.38391813
C        6.28408246       1.99483047      -3.94353821
C        4.71102140       0.77750136      -2.41930301
C        7.12163031      -0.01824420      -2.64976505
O        8.19478422       0.57481190      -2.59474309
N        6.86224228      -1.25320032      -2.08543458
C        7.72867885      -2.07347909      -1.32466198
C        9.07709821      -1.77752421      -1.11073701
C        9.87916954      -2.62586531      -0.33847131
C        9.34378253      -3.77874955       0.23076218
C        8.00330811      -4.09316966       0.02415534
C        7.20393077      -3.24844682      -0.75142600
Br       5.37852616      -3.73555542      -0.99248601
C        3.10543823       0.48296617      -4.34284424
H        1.85629361       3.60046351      -2.13828191
H        4.20123528       3.45382110      -2.90046657
H        3.07593689       3.25086735      -4.24034319
H        3.84749052       2.15939711      -6.39871877
H        5.51529519       1.61507336      -6.56085718
H        6.31931878      -0.43442975      -5.26136782
H        5.19749098      -1.29877283      -4.22647472
H        7.14088656       1.91450572      -4.62560773
H        6.60086947       2.65855407      -3.12799979
H        4.42834794      -0.18804355      -1.98183711
H        5.00633709       1.40849823      -1.56909046
H        5.92275176      -1.62457194      -2.17041591
H        9.54312453      -0.89369988      -1.53514876
H       10.92709799      -2.37897294      -0.18272248
H        9.97097553      -4.43049381       0.83393468
H        7.59052173      -4.99341214       0.47166588
H        2.23815761       0.89817013      -4.87350330
H        2.80239870      -0.51224049      -3.99137340
C       -0.87821341      -0.87821341      -0.87821341
N       -1.73193850      -1.81536789      -0.36764101
C       -2.28224835      -2.33297580      -1.44096228
N       -1.77810559      -1.73257613      -2.55408036
N       -0.87358479      -0.79108173      -2.21179646
C       -2.08627290      -1.97229719      -3.96718662
C       -3.15654337      -3.07933544      -4.16971370
C       -3.44270876      -3.29934403      -5.66301732
H       -4.20125523      -4.08165530      -5.77975185
C       -2.15077130      -3.72497095      -6.37258892
C       -1.08621920      -2.63168931      -6.21529064
H       -0.16582128      -2.94005048      -6.72379393
C       -1.60025914      -1.32021303      -6.83184482
C       -2.90008476      -0.86170422      -6.12957446
C       -3.95314842      -1.98960260      -6.27970013
C       -2.62133591      -0.66759712      -4.61889275
C       -3.43152374       0.44351453      -6.76514195
O       -4.52953530       0.47769924      -7.31250314
N       -2.56695649       1.51514430      -6.64266435
C       -2.74994839       2.84882324      -7.07873659
C       -3.85237642       3.26895363      -7.82688821
C       -3.97982401       4.60673140      -8.21868292
C       -3.00887116       5.54108359      -7.86648322
C       -1.90031680       5.14006676      -7.12573307
C       -1.77079148       3.80297331      -6.73909177
Br      -0.23185449       3.32177809      -5.72538036
C       -0.79997369      -2.41025876      -4.72101619
H       -3.02509474      -3.11804458      -1.45189971
H       -4.08964007      -2.80692044      -3.65896243
H       -2.81835172      -4.02441908      -3.72437663
H       -1.78457531      -4.66945341      -5.95157768
H       -2.34872504      -3.90643878      -7.43606190
H       -1.78230112      -1.45815408      -7.90580165
H       -0.81807219      -0.55537026      -6.75175042
H       -4.18962660      -2.15167589      -7.33969752
H       -4.89448474      -1.69760071      -5.79533789
H       -1.89570153       0.14118650      -4.46762647
H       -3.53741375      -0.33774647      -4.10876557
H       -1.70049980       1.36894142      -6.13703736
H       -4.63438978       2.57966165      -8.12984527
H       -4.84533357       4.91539523      -8.80090919
H       -3.11670945       6.57961189      -8.16944949
H       -1.14633311       5.87359036      -6.85270095
H       -0.39933112      -3.33208320      -4.27841673
H       -0.01215952      -1.65241931      -4.61695278
C       -0.87821341       0.87821341       0.87821341
N       -0.86090087       2.24311720       0.81092934
C       -1.74536607       2.59695129       1.71386907
N       -2.27289112       1.48873203       2.30313892
N       -1.72818935       0.37170318       1.77657046
C       -3.28679865       1.38227252       3.35668553
C       -3.80845269       2.76605402       3.83108579
C       -4.86278037       2.60538769       4.93690205
H       -5.21668742       3.59337227       5.25260269
C       -4.23951937       1.87519741       6.13361439
C       -3.74534787       0.48978316       5.69806812
H       -3.30147536      -0.02774507       6.55593540
C       -4.92717006      -0.33149916       5.15664609
C       -5.57145487       0.37770929       3.94219928
C       -6.04154110       1.78307381       4.39783622
C       -4.50309543       0.56717900       2.83755135
C       -6.77536288      -0.43465106       3.41243935
O       -7.90781697       0.03855012       3.41797211
N       -6.43811496      -1.69252719       2.94888878
C       -7.27971462      -2.67453739       2.37468451
C       -8.66722892      -2.54021977       2.28330185
C       -9.44321644      -3.54482992       1.69338902
C       -8.84266164      -4.69455282       1.18616197
C       -7.46168388      -4.84873406       1.27303329
C       -6.68762761      -3.84760244       1.86688477
Br      -4.80454496      -4.12031602       1.95122782
C       -2.69083370       0.64970771       4.59070724
H       -2.02176355       3.61222399       1.96105148
H       -4.24808688       3.31780242       2.98963365
H       -2.97914552       3.37816318       4.20983873
H       -3.40548575       2.46151158       6.53860908
H       -4.97799947       1.77483513       6.93839113
H       -5.67519931      -0.47619879       5.94725634
H       -4.57327756      -1.33377651       4.88569182
H       -6.81175734       1.69385220       5.17539048
H       -6.50984799       2.31721571       3.56035964
H       -4.16006787      -0.40789781       2.46997144
H       -4.94999924       1.06725469       1.96667186
H       -5.45944492      -1.95654183       2.96569264
H       -9.18378641      -1.66569593       2.66648293
H      -10.52235427      -3.42257773       1.63107099
H       -9.45067778      -5.46854536       0.72441463
H       -6.99825262      -5.74736963       0.87456071
H       -1.82639953       1.20572191       4.97770961
H       -2.31579317      -0.34312000       4.30885844
C        0.87821341      -0.87821341       0.87821341
N        1.69243933      -1.85159501       0.37091306
C        2.25791053      -2.35531557       1.44296033
N        1.80052048      -1.71196974       2.55227185
N        0.91234651      -0.75554778       2.20856869
C        2.14070134      -1.92235125       3.96270412
C        3.18628234      -3.05244313       4.16686704
C        3.50719303      -3.24039219       5.65748489
H        4.24756957      -4.03975719       5.77533562
C        2.22426374      -3.61153341       6.41253402
C        1.18526695      -2.49414139       6.25379081
H        0.27123173      -2.76360270       6.79483125
C        1.75066351      -1.18126618       6.82038730
C        3.04254932      -0.77728833       6.07152578
C        4.06894929      -1.92914877       6.22435308
C        2.72788599      -0.61588681       4.56405297
C        3.62568537       0.52936417       6.65682996
O        4.73876448       0.54807910       7.17365383
N        2.78690357       1.62058155       6.52815452
C        3.01715166       2.95988883       6.92259891
C        4.15039616       3.36948871       7.62940355
C        4.32403947       4.71323191       7.98096798
C        3.36902084       5.66406842       7.62931837
C        2.23036510       5.27393247       6.92955048
C        2.05480460       3.93106693       6.58317227
Br       0.47648787       3.46531106       5.62427995
C        0.86428750      -2.30479504       4.76216610
H        2.97963412      -3.15982106       1.45558385
H        4.11198957      -2.81930864       3.62422474
H        2.81103013      -3.99944327       3.75667403
H        1.82170827      -4.55652055       6.02737758
H        2.44630672      -3.76999202       7.47492699
H        1.95825051      -1.29551602       7.89249033
H        0.98720026      -0.39773643       6.74025617
H        4.32990957      -2.06937209       7.28171835
H        5.00413222      -1.67596489       5.70732623
H        2.02015812       0.20811346       4.41009684
H        3.63813147      -0.32487680       4.02091752
H        1.90337185       1.48471262       6.04993650
H        4.92178530       2.66738728       7.93017538
H        5.21303902       5.01350691       8.53131543
H        3.51268233       6.70695297       7.90081768
H        1.48897945       6.02026338       6.65672763
H        0.42732324      -3.22677358       4.35573423
H        0.09435988      -1.52874728       4.65842445
