189
Properties=species:S:1:pos:R:3 pbc="F F F"
C        0.00000000       0.00000000       0.00000000
C        0.87821341       0.87821341      -0.87821341
N        0.71740629       2.23261797      -0.96492314
C        1.65688012       2.59055351      -1.80875280
N        2.35450916       1.49449904      -2.21575388
N        1.86893947       0.38207285      -1.62545067
C        3.48463132       1.39663617      -3.14448922
C        3.91499819       2.77547432      -3.71512000
C        5.09629978       2.62328224      -4.68548809
H        5.38268373       3.60797563      -5.07200303
C        4.68573794       1.71265369      -5.84993953
C        4.28702167       0.33137411      -5.31480338
H        3.99500068      -0.31524464      -6.14990965
C        5.47746700      -0.29548267      -4.57033267
C        5.90894249       0.59850282      -3.38391813
C        6.28408246       1.99483047      -3.94353821
C        4.71102140       0.77750136      -2.41930301
C        7.12163031      -0.01824420      -2.64976505
O        8.19478422       0.57481190      -2.59474309
N        6.86224228      -1.25320032      -2.08543458
C        7.72867885      -2.07347909      -1.32466198
C        9.07709821      -1.77752421      -1.11073701
C        9.87916954      -2.62586531      -0.33847131
C        9.34378253      -3.77874955       0.23076218
C        8.00330811      -4.09316966       0.02415534
C        7.20393077      -3.24844682      -0.75142600
C        3.10543823       0.48296617      -4.34284424
H        1.85629361       3.60046351      -2.13828191
H        4.20123528       3.45382110      -2.90046657
H        3.07593689       3.25086735      -4.24034319
H        3.84749052       2.15939711      -6.39871877
H        5.51529519       1.61507336      -6.56085718
H        6.31931878      -0.43442975      -5.26136782
H        5.19749098      -1.29877283      -4.22647472
H        7.14088656       1.91450572      -4.62560773
H        6.60086947       2.65855407      -3.12799979
H        4.42834794      -0.18804355      -1.98183711
H        5.00633709       1.40849823      -1.56909046
H        5.92275176      -1.62457194      -2.17041591
H        9.54312453      -0.89369988      -1.53514876
H       10.92709799      -2.37897294      -0.18272248
H        9.97097553      -4.43049381       0.83393468
H        7.59052173      -4.99341214       0.47166588
H        2.23815761       0.89817013      -4.87350330
H        2.80239870      -0.51224049      -3.99137340
C        5.82380483      -3.61673296      -0.93368322
C        4.66794935      -3.92517260      -1.08632365
Br       2.79902880      -4.42389340      -1.33313032
C       -0.87821341      -0.87821341      -0.87821341
N       -0.73293958      -0.94658784      -2.23541998
C       -1.66582190      -1.79819803      -2.59216649
N       -2.34737761      -2.22417186      -1.49321260
N       -1.85311066      -1.64413479      -0.37921753
C       -3.46414242      -3.16867406      -1.39294023
C       -3.88995298      -3.74468305      -2.77095648
C       -5.06429796      -4.72326263      -2.61750952
H       -5.34427359      -5.11734187      -3.60104693
C       -6.26086628      -3.99067799      -1.99678690
C       -5.87551741      -3.43976312      -0.61791863
H       -6.73312189      -2.91786604      -0.17867776
C       -5.45322576      -4.59894671       0.29985548
C       -4.24143009      -5.35222866      -0.29770470
C       -4.64422931      -5.87920010      -1.69902173
C       -3.06577954      -4.36132567      -0.48072056
C       -3.83158037      -6.53329834       0.61172755
O       -3.87822484      -7.68995512       0.20384076
N       -3.42051787      -6.14800250       1.87404383
C       -2.95424843      -6.96033920       2.93472590
C       -2.93876024      -8.35635344       2.88480267
C       -2.45418029      -9.10283462       3.96523937
C       -1.97768942      -8.46408086       5.10749949
C       -1.99019669      -7.07364524       5.17785883
C       -2.47901436      -6.32865750       4.10076192
C       -4.69966382      -2.46104055      -0.77054428
H       -1.87132275      -2.12054170      -3.60317457
H       -3.04651868      -4.26347942      -3.24552484
H       -4.18308949      -2.93347427      -3.45058367
H       -6.58133055      -3.17172860      -2.65254724
H       -7.11285125      -4.67512223      -1.90325225
H       -6.29417201      -5.29105074       0.43896590
H       -5.21865338      -4.20149489       1.29495540
H       -5.47035695      -6.59747973      -1.61316333
H       -3.80747151      -6.42529138      -2.15466044
H       -2.73402343      -3.98179631       0.49367825
H       -2.19637572      -4.88593329      -0.90161678
H       -3.39352432      -5.15588397       2.08081255
H       -3.30215318      -8.90191232       2.01949210
H       -2.44985355     -10.18915449       3.90816051
H       -1.59772879      -9.04973976       5.94092151
H       -1.61611252      -6.58045111       6.07111993
H       -5.00208788      -1.61099500      -1.39674816
H       -4.45243184      -2.04369518       0.21459540
C       -2.46887550      -4.89379933       4.22191973
C       -2.46038420      -3.69210560       4.32338940
Br      -2.44665449      -1.74906849       4.48745727
C       -0.87821341       0.87821341       0.87821341
N       -0.69406378       0.99336755       2.22751607
C       -1.64187368       1.82703915       2.58727360
N       -2.36942404       2.19757910       1.49775894
N       -1.89126578       1.59824455       0.38695264
C       -3.51770388       3.10418809       1.40386474
C       -3.91933939       3.70982995       2.77642317
C       -5.12782266       4.64707534       2.63017211
H       -5.39003366       5.06304664       3.60958208
C       -6.31916838       3.85949495       2.06966783
C       -5.95876669       3.27766992       0.69676255
H       -6.81255576       2.71652975       0.30058018
C       -5.60095117       4.41985892      -0.26849310
C       -4.39574204       5.22785440       0.26776700
C       -4.77214815       5.78593160       1.66437139
C       -3.18467254       4.27926151       0.44389173
C       -4.05078808       6.39179233      -0.68942925
O       -4.12118938       7.55869170      -0.31554187
N       -3.66634209       5.97985338      -1.95171893
C       -3.25807773       6.77238939      -3.05060538
C       -3.28474380       8.16910947      -3.04354227
C       -2.85672598       8.89578993      -4.16074038
C       -2.39534790       8.23637159      -5.29744870
C       -2.36649781       6.84467619      -5.32519089
C       -2.79889729       6.11925483      -4.21124217
C       -4.74879667       2.34030173       0.84215024
H       -1.82660449       2.17446010       3.59397444
H       -3.07853893       4.26854740       3.20843662
H       -4.16622434       2.91175478       3.48916831
H       -6.59383678       3.05211160       2.75965803
H       -7.19458338       4.51453185       1.98211050
H       -6.46695934       5.08145790      -0.40216038
H       -5.38434544       3.99878003      -1.25793260
H       -5.62255564       6.47579582       1.58264855
H       -3.93944533       6.37112367       2.07685434
H       -2.87090807       3.87968208      -0.52844866
H       -2.31973630       4.84289377       0.82129571
H       -3.61462008       4.98302923      -2.12905357
H       -3.63861446       8.73019041      -2.18423147
H       -2.88464183       9.98299489      -4.13678919
H       -2.05933150       8.80693438      -6.15971883
H       -2.00443099       6.33536046      -6.21434775
H       -5.00536578       1.50147449       1.50299077
H       -4.51861929       1.90004347      -0.13713115
C       -2.74757373       4.68227720      -4.28909584
C       -2.70459025       3.47880844      -4.35429828
Br      -2.63508959       1.53290123      -4.45972512
C        0.87821341      -0.87821341       0.87821341
N        0.92959096      -2.23766667       0.74768978
C        1.78771864      -2.59355913       1.67490867
N        2.23383487      -1.49191541       2.33901180
N        1.66080819      -0.37702053       1.83863426
C        3.19210475      -1.38983228       3.44381968
C        3.75733996      -2.76944142       3.87881113
C        4.75094114      -2.61392951       5.04019946
H        5.13705950      -3.59867957       5.32692332
C        4.03913027      -1.97140423       6.23779667
C        3.49945777      -0.59077285       5.84296854
H        2.99238551      -0.13594095       6.70133922
C        4.66403337       0.30887177       5.39715539
C        5.39662654      -0.31090247       4.18383443
C        5.91230450      -1.71350911       4.59663753
C        4.39035467      -0.49585344       3.02161767
C        6.58313332       0.58029188       3.75030971
O        7.73556693       0.15977177       3.78854404
N        6.20744839       1.84220398       3.32923213
C        7.02633352       2.88820353       2.84173175
C        8.42142685       2.82216483       2.81104898
C        9.17447892       3.88846195       2.30575858
C        8.54326542       5.03248973       1.82349511
C        7.15394674       5.11886452       1.85090088
C        6.40247406       4.05593756       2.36037344
C        2.50570565      -0.74547896       4.68006403
H        2.10094967      -3.60579799       1.88829137
H        4.26107478      -3.25940079       3.03504738
H        2.94190858      -3.43640354       4.18883531
H        3.21654100      -2.61410552       6.57495988
H        4.73427501      -1.87607772       7.08087300
H        5.36722556       0.44955599       6.22858728
H        4.27519211       1.30573417       5.15573492
H        6.64089819      -1.62653642       5.41356540
H        6.44362077      -2.18477767       3.75902490
H        4.01808960       0.47900817       2.68306006
H        4.90020951      -0.93250728       2.15120900
H        5.21748481       2.05997435       3.31108527
H        8.96129347       1.95483810       3.17811802
H       10.25996453       3.81893231       2.28981531
H        9.13392120       5.85482275       1.42744858
H        6.66663167       6.01341924       1.47223128
H        1.65215198      -1.35847614       4.99920293
H        2.09671631       0.24150875       4.42632406
C        4.96905359       4.19335594       2.36505745
C        3.76856394       4.30844383       2.36898030
Br       1.82747372       4.49453122       2.37532321
