189
Properties=species:S:1:pos:R:3 pbc="F F F"
C        0.00000000       0.00000000       0.00000000
C        0.88086141       0.88086141      -0.88086141
C        1.42981179       0.36184739      -2.05030723
C        2.24213363       1.17086456      -2.84957187
C        2.50895098       2.49994778      -2.49101411
C        1.94746766       3.00698224      -1.31687312
C        1.13628779       2.19830676      -0.51161107
N        3.35174799       3.23522607      -3.34951710
C        3.72097298       4.56707210      -3.24305737
O        3.31871224       5.34880368      -2.38776881
C        4.70915785       5.02630588      -4.34043336
C        5.06629739       6.52347777      -4.14193346
C        6.05086186       7.00077131      -5.22067745
H        6.29353619       8.05693070      -5.05680283
C        7.33257947       6.15984472      -5.13764917
C        6.99965902       4.67667172      -5.35189767
H        7.91831335       4.08226269      -5.29537787
C        6.01704910       4.20635624      -4.27178706
C        6.35423631       4.49840952      -6.73483263
C        5.05278524       5.34608457      -6.86422098
C        5.41150303       6.82971724      -6.60891944
C        4.07907169       4.87364781      -5.74616399
N        4.45526958       5.20173025      -8.19648941
C        3.14878101       5.32677463      -8.56549808
N        3.02947009       5.13158290      -9.85763529
C        4.31797120       4.91237057     -10.25679870
N        5.22406939       4.95408491      -9.27594218
H        1.23357041      -0.66457097      -2.34671104
H        2.65962712       0.74272932      -3.75756424
H        2.12747759       4.02617167      -0.98964542
H        0.71455761       2.61138177       0.40129839
H        3.72220874       2.71138241      -4.13061029
H        5.50701654       6.68007632      -3.14802924
H        4.15786774       7.13988075      -4.17584746
H        8.05230567       6.49632105      -5.89374184
H        7.81014841       6.29876870      -4.16002319
H        5.82167241       3.13621300      -4.40940964
H        6.47330326       4.30740348      -3.27847864
H        6.13132191       3.43646328      -6.90682801
H        7.08553004       4.78984431      -7.50038720
H        4.51365359       7.45740752      -6.68103051
H        6.10349283       7.19290964      -7.38045080
H        3.14614903       5.45212689      -5.77284099
H        3.79008536       3.83265120      -5.93782232
H        2.34095036       5.55299195      -7.88439783
C        4.67201811       4.65545319     -11.62874776
C        4.96853241       4.44028489     -12.77775511
Br       5.44797094       4.09237594     -14.63560280
C       -0.88086141      -0.88086141      -0.88086141
C       -1.30731409      -2.12106901      -0.41358331
C       -2.10781327      -2.92716310      -1.22759369
C       -2.49021655      -2.50183620      -2.50786011
C       -2.05752865      -1.25329551      -2.96049887
C       -1.25226941      -0.44461336      -2.14932286
N       -3.28495072      -3.38810308      -3.26343736
C       -3.82847044      -3.18096060      -4.52167140
O       -3.74148060      -2.14355327      -5.17025085
C       -4.60459632      -4.40083417      -5.07046660
C       -5.17404724      -4.07969089      -6.47797048
C       -5.94719406      -5.28056199      -7.04455457
H       -6.33367554      -5.03361602      -8.03997817
C       -5.00038046      -6.48486264      -7.14483026
C       -4.44296729      -6.82879116      -5.75646996
H       -3.77127983      -7.69094506      -5.83372903
C       -3.67204372      -5.62639823      -5.19675045
C       -5.60831556      -7.16571974      -4.81344317
C       -6.60068918      -5.97006185      -4.69233976
C       -7.11866713      -5.62276240      -6.10871017
C       -5.79671619      -4.75395287      -4.14821444
N       -7.73080733      -6.30434875      -3.81833316
C       -8.50420882      -5.47189224      -3.06495266
N       -9.42094924      -6.16554608      -2.43219296
C       -9.18768194      -7.44377122      -2.85568730
N       -8.16914932      -7.57469312      -3.71025403
H       -1.02372423      -2.46793037       0.57594412
H       -2.42768653      -3.89154658      -0.84068757
H       -2.31876653      -0.87914582      -3.94538232
H       -0.92159323       0.52089418      -2.52394194
H       -3.46957622      -4.27654549      -2.81807973
H       -4.35989980      -3.81067042      -7.16455188
H       -5.83744939      -3.20562365      -6.43052292
H       -5.53379793      -7.34857804      -7.55999258
H       -4.17690578      -6.25879494      -7.83323957
H       -3.24242929      -5.89933012      -4.22553564
H       -2.82230573      -5.38750666      -5.84937299
H       -5.21842970      -7.43416753      -3.82201598
H       -6.12006817      -8.05809400      -5.19759939
H       -7.81414561      -4.77447481      -6.06347119
H       -7.68775569      -6.46528865      -6.52380894
H       -6.44130716      -3.86936646      -4.06044329
H       -5.45487848      -4.97614122      -3.12953918
H       -8.37085958      -4.40117239      -3.00630817
C       -9.97817072      -8.56360614      -2.41444221
C      -10.64020507      -9.50146789      -2.04489944
Br     -11.71065863     -11.01791102      -1.44738004
C       -0.88086141       0.88086141       0.88086141
C       -0.29544355       1.73547301       1.81104986
C       -1.10732397       2.53461513       2.62063096
C       -2.50413489       2.48967745       2.50610053
C       -3.07593582       1.63006983       1.56531737
C       -2.26590541       0.82512680       0.75517341
N       -3.24230932       3.31914333       3.37503851
C       -4.61687902       3.49170845       3.42251497
O       -5.42410351       2.97210218       2.65907903
C       -5.08381979       4.44441759       4.54765972
C       -6.63000878       4.57592820       4.52577163
C       -7.11685220       5.51653397       5.63892446
H       -8.21005066       5.58871506       5.60850401
C       -6.67625855       4.95549290       6.99832190
C       -5.14638518       4.83753734       7.04430590
H       -4.83782421       4.44041441       8.01771530
C       -4.66691463       3.89706876       5.93120900
C       -4.52596195       6.22741068       6.83410583
C       -4.95825605       6.83798521       5.46684952
C       -6.50372710       6.91205691       5.43435570
C       -4.48688849       5.85935006       4.35264494
N       -4.39273377       8.17913313       5.28162233
C       -4.09307542       8.82757893       4.12039937
N       -3.61300353      10.01959002       4.38609474
C       -3.66174778      10.07466949       5.75072320
N       -4.13923931       8.97485685       6.34000031
H        0.78470515       1.78655588       1.91385975
H       -0.62677683       3.19336400       3.33977985
H       -4.15133353       1.55134936       1.44061178
H       -2.73214722       0.15866638       0.03382739
H       -2.68518580       3.84279343       4.03622221
H       -7.09670784       3.58923449       4.64917977
H       -6.96662115       4.95539299       3.55158181
H       -7.02707762       5.60919854       7.80609239
H       -7.13259859       3.97197502       7.16436669
H       -3.57828696       3.78677715       6.00223094
H       -5.08516572       2.89321292       6.08080674
H       -3.43081417       6.15732514       6.88647390
H       -4.83539004       6.87588006       7.66449146
H       -6.84592807       7.32833338       4.47783016
H       -6.86931948       7.59299945       6.21453434
H       -4.78280509       6.22708091       3.36123090
H       -3.39017532       5.82683070       4.34355286
H       -4.23452427       8.40994311       3.13387277
C       -3.23101303      11.22880910       6.49639694
C       -2.87027268      12.19540103       7.12089869
Br      -2.28698604      13.75829843       8.13066521
C        0.88086141      -0.88086141       0.88086141
C        2.26492554      -0.84161641       0.73542446
C        3.06667352      -1.65618498       1.53971155
C        2.49563751      -2.51028317       2.49399218
C        1.10577592      -2.53508450       2.63046260
C        0.29911503      -1.72328198       1.82380862
N        3.38142767      -3.30656062       3.24850287
C        3.07136416      -4.18326009       4.27647820
O        1.94961007      -4.36932068       4.73635397
C        4.29910490      -4.93391807       4.84287413
C        3.85853998      -5.88996514       5.98320350
C        5.06358525      -6.64959917       6.55912620
H        4.72820454      -7.32236486       7.35670033
C        5.72269698      -7.46769125       5.43968513
C        6.18281451      -6.53414675       4.31126716
H        6.65559316      -7.12295921       3.51740155
C        4.97544198      -5.77934332       3.74040710
C        7.19252163      -5.52155149       4.87340535
C        6.56455106      -4.67618674       6.02235298
C        6.07838063      -5.64372298       7.12803609
C        5.32791366      -3.93866911       5.43230072
N        7.53936632      -3.73276287       6.58136005
C        7.31614873      -2.53391364       7.19099135
N        8.45744597      -2.00152633       7.55971598
C        9.37402887      -2.93898064       7.17413095
N        8.85708379      -4.01774693       6.57926576
H        2.72691002      -0.18534575       0.00345471
H        4.14470293      -1.60815944       1.40705831
H        0.61229556      -3.18262404       3.34837507
H       -0.78080988      -1.76300192       1.94244895
H        4.35547609      -3.21405919       2.99466617
H        3.11604313      -6.60857291       5.61050606
H        3.36394760      -5.32491726       6.78473110
H        6.57843744      -8.02692548       5.83700563
H        5.01378232      -8.20730659       5.04785139
H        5.31014446      -5.14976283       2.90738776
H        4.25465786      -6.48960565       3.31492186
H        7.54437368      -4.86166626       4.06857326
H        8.07335101      -6.07067762       5.23173293
H        5.61843878      -5.08203430       7.95161854
H        6.92952978      -6.18489717       7.56242632
H        4.82763517      -3.33916430       6.20431743
H        5.66538546      -3.22363158       4.67154184
H        6.33887645      -2.09805249       7.34141120
C       10.78823375      -2.77652412       7.39146120
C       11.97263034      -2.64046679       7.57347527
Br      13.88769945      -2.42047360       7.86777664
