138
Properties=species:S:1:pos:R:3 pbc="F F F"
O        7.73232165       6.11152527      -5.59234133
C        6.57969212       5.70233468      -5.46104882
N        6.26834279       4.85734894      -4.41483249
N        5.00445570       4.39070134      -4.20736941
C        4.87135509       3.58100997      -3.20063868
C        3.58163572       3.02981053      -2.86944135
C        2.35791730       3.23723284      -3.47894986
C        1.30634771       2.50983209      -2.84306763
C        1.78171452       1.78171452      -1.78171452
S        3.44934987       1.95697584      -1.54151759
C        5.42376469       6.04980376      -6.39843421
O        5.86136775       6.85606702      -7.48685279
C        5.03664318       6.89238212      -8.57640580
C        5.64606741       7.30282600      -9.76474565
C        4.91864423       7.34960087     -10.95570765
C        3.57169764       6.99662510     -10.95190893
Br       2.58483907       7.03444708     -12.56383280
C        2.94621988       6.61386839      -9.76675224
C        3.67800977       6.56926418      -8.57596245
H        7.03390664       4.60828675      -3.79639358
H        5.73671790       3.29476503      -2.57505318
H        2.22279848       3.88335183      -4.33920302
H        0.26897217       2.52924473      -3.15540573
H        4.67255563       6.60301849      -5.82130268
H        5.01268496       5.09988626      -6.76501117
H        6.69991623       7.57165927      -9.76374313
H        5.41298607       7.65582442     -11.87380290
H        1.89201569       6.34812327      -9.75805779
H        3.16074621       6.28231738      -7.66616765
O       -5.21976364      -6.86891754      -7.34750707
C       -5.24654206      -6.13839345      -6.35814012
N       -4.08743008      -5.52290692      -5.93018722
N       -4.06200259      -4.68620939      -4.85431447
C       -2.89338917      -4.20560026      -4.55401432
C       -2.73730213      -3.29842893      -3.44515654
C       -3.69397000      -2.80013048      -2.57999953
C       -3.13658063      -1.91316599      -1.60950081
C       -1.78171452      -1.78171452      -1.78171452
S       -1.17826834      -2.69540484      -3.07417011
C       -6.49456570      -5.85438345      -5.52305351
O       -7.61479896      -6.59597244      -5.99351617
C       -8.65146843      -6.73979151      -5.11417115
C       -9.52253884      -7.79519461      -5.39590560
C      -10.60233803      -8.06794615      -4.55366858
C      -10.81709569      -7.27067938      -3.43245661
Br     -12.26262223      -7.64676115      -2.27373558
C       -9.97168910      -6.19726376      -3.15788765
C       -8.89197511      -5.92685978      -4.00440151
H       -3.25006895      -5.71887942      -6.46963860
H       -1.99354648      -4.47687738      -5.13611227
H       -4.74546091      -3.05749297      -2.64239945
H       -3.70655490      -1.40884453      -0.83822320
H       -6.71676445      -4.78268453      -5.59742782
H       -6.25686356      -6.13287102      -4.48784781
H       -9.34701029      -8.41881207      -6.26949627
H      -11.26034622      -8.90288607      -4.77938110
H      -10.14279288      -5.56601691      -2.28938696
H       -8.25986982      -5.07541358      -3.77394785
O       -7.74510696       5.63763671       6.05344458
C       -6.57837366       5.45637783       5.70832414
N       -6.27751205       4.44731706       4.81569511
N       -5.00654696       4.21477828       4.38120120
C       -4.87470259       3.21249807       3.56580308
C       -3.58259077       2.87282486       3.02547197
C       -2.35926095       3.48371009       3.23112896
C       -1.30768785       2.84781543       2.50374415
C       -1.78171452       1.78171452       1.78171452
S       -3.44815050       1.53726850       1.96242430
C       -5.38813355       6.27220137       6.21166774
O       -5.78882591       7.22985389       7.18560777
C       -4.79618612       7.72452234       7.98472262
C       -5.23274911       8.30045496       9.18043499
C       -4.31348103       8.81175504      10.09871669
C       -2.95231408       8.75757691       9.81034069
Br      -1.69916297       9.42608819      11.05786779
C       -2.50733492       8.21188482       8.60762077
C       -3.43125543       7.70176918       7.69021179
H       -7.06027435       3.88980827       4.48850434
H       -5.74302533       2.59739893       3.26611186
H       -2.22546483       4.34864928       3.87123922
H       -0.27142506       3.16409575       2.51810182
H       -4.94750055       6.79536866       5.35400758
H       -4.67268498       5.56047028       6.64442712
H       -6.29659853       8.33488224       9.40383786
H       -4.67000599       9.24159713      11.03101027
H       -1.44598132       8.17786169       8.37435373
H       -3.05655223       7.29703259       6.75564642
O        5.27551514      -6.68006832       7.48060479
C        5.27315789      -6.03950404       6.43041369
N        4.13511681      -5.35929737       6.04611004
N        4.08192492      -4.61581087       4.90479066
C        2.93481977      -4.05802071       4.66016327
C        2.75481414      -3.23550849       3.49056496
C        3.66730438      -2.89923158       2.50756405
C        3.09986872      -2.04900379       1.51037492
C        1.78171452      -1.78171452       1.78171452
S        1.22399273      -2.52677264       3.19707792
C        6.45975814      -5.93975827       5.47248625
O        7.55260568      -6.73807378       5.91360810
C        8.48997853      -7.04747544       4.96797713
C        9.29245941      -8.15034135       5.27083831
C       10.26530428      -8.58852634       4.37012213
C       10.44311282      -7.90965724       3.16746161
Br      11.74172808      -8.50970999       1.93168088
C        9.66824323      -6.79064232       2.86795495
C        8.69567517      -6.35444030       3.77312094
H        3.33663273      -5.43332535       6.66862889
H        2.07194113      -4.19759717       5.33699783
H        4.69515968      -3.24458935       2.50560430
H        3.63757831      -1.66398840       0.65205592
H        6.77584871      -4.89009029       5.43093779
H        6.10712589      -6.28045818       4.48999831
H        9.14558038      -8.68094931       6.20878894
H       10.86954158      -9.45796646       4.61510536
H        9.81182381      -6.25164041       1.93473253
H        8.11808455      -5.47135472       3.51979198
C       -0.00445707       0.01189536      -1.78238275
H       -0.66409135       0.67374010      -2.43557963
H        0.65740317      -0.63156657      -2.45157240
C       -0.90989263      -0.90692880      -0.91072765
C        0.90977584       0.90977584      -0.90977584
C       -0.00465871       1.77757030       0.00794375
H       -0.66225468       2.44313916      -0.64384735
H        0.64322798       2.43503045       0.67728295
C       -1.78241447       0.00034974      -0.00472694
H       -2.45427497      -0.65498947       0.64260836
H       -2.43311707       0.67328779      -0.65473579
C       -0.91132561       0.90220522       0.91563759
C       -0.01476271      -0.02253852       1.78660255
H       -0.67934791      -0.69751639       2.42135241
H        0.63392994       0.61504881       2.47327442
C        0.01484550      -1.77751727      -0.01636693
H        0.67870853      -2.42144646      -0.68295456
H       -0.62264859      -2.45592969       0.64226336
C        1.78714474       0.01002794       0.00389507
H        2.44202412       0.67113390       0.66197326
H        2.45385902      -0.65136977      -0.64189061
C        0.91606151      -0.90478549       0.90901405
