125
Properties=species:S:1:pos:R:3 pbc="F F F"
C        0.00000000       0.00000000       0.00000000
O        6.82241763       5.20162125      -4.68243730
C        5.66978810       4.79243066      -4.55114480
N        5.35843876       3.94744492      -3.50492847
N        4.09455167       3.48079731      -3.29746539
C        3.96145107       2.67110594      -2.29073466
C        2.67173170       2.11990651      -1.95953732
C        1.44801328       2.32732881      -2.56904584
C        0.39644368       1.59992807      -1.93316360
C        0.87181049       0.87181049      -0.87181049
S        2.53944584       1.04707181      -0.63161356
C        4.51386066       5.13989973      -5.48853019
O        4.95146373       5.94616300      -6.57694877
C        4.12673915       5.98247809      -7.66650177
C        4.73616339       6.39292198      -8.85484162
C        4.00874021       6.43969685     -10.04580363
C        2.66179361       6.08672108     -10.04200491
C        2.03631585       5.70396436      -8.85684822
C        2.76810574       5.65936016      -7.66605842
H        6.12400261       3.69838272      -2.88648955
H        4.82681388       2.38486101      -1.66514916
H        1.31289445       2.97344780      -3.42929900
H       -0.64093186       1.61934071      -2.24550171
H        3.76265160       5.69311446      -4.91139865
H        4.10278093       4.18998223      -5.85510715
H        5.79001220       6.66175525      -8.85383911
H        4.50308205       6.74592040     -10.96389887
H        0.98211166       5.43821924      -8.84815377
H        2.25084219       5.37241335      -6.75626363
C        1.91006118       6.11553170     -11.26987636
C        1.28048526       6.13966059     -12.29821869
Br       0.26251425       6.17867497     -13.96096128
O       -4.32710392      -5.89034694      -6.48902532
C       -4.34469373      -5.19258489      -5.47608493
N       -3.19223381      -4.55352602      -5.06505232
N       -3.15820167      -3.75072551      -3.96388719
C       -1.99615335      -3.24207879      -3.68505952
C       -1.83274179      -2.36566822      -2.55276551
C       -2.77599575      -1.92620770      -1.64218448
C       -2.21555378      -1.05258469      -0.66139688
C       -0.87181049      -0.87181049      -0.87181049
S       -0.28222889      -1.72426741      -2.21163492
C       -5.57323701      -4.97571655      -4.59333702
O       -6.68427023      -5.73814695      -5.05215832
C       -7.68676999      -5.94319317      -4.14575585
C       -8.53288313      -7.01695873      -4.43408514
C       -9.57561597      -7.35103908      -3.56758563
C       -9.77880816      -6.59686274      -2.41484870
C       -8.95913247      -5.50571168      -2.13228428
C       -7.91654985      -5.17384462      -3.00312986
H       -2.36709486      -4.70510061      -5.63667942
H       -1.10761250      -3.46550764      -4.30370391
H       -3.82033660      -2.21551833      -1.67978633
H       -2.77575109      -0.59158370       0.14342423
H       -5.83136070      -3.90999604      -4.62580798
H       -5.29336537      -5.27877944      -3.57572550
H       -8.36629776      -7.60673332      -5.33257548
H      -10.21400403      -8.19940570      -3.79949159
H       -9.12170320      -4.90801147      -1.23877001
H       -7.30440364      -4.30997978      -2.76513574
C      -10.84109396      -6.94662010      -1.50775517
C      -11.73075832      -7.23954189      -0.74806434
Br     -13.16927033      -7.71317165       0.48029148
O       -6.75702640       4.54212590       5.40732388
C       -5.62338394       4.45157437       4.93840524
N       -5.29889222       3.37715813       4.13476180
N       -4.06611562       3.23644953       3.57024923
C       -3.90026610       2.15944871       2.86357685
C       -2.64492890       1.90202598       2.20422064
C       -1.49455072       2.66890225       2.18093496
C       -0.45947120       2.06840315       1.40166101
C       -0.87181049       0.87181049       0.87181049
S       -2.46190674       0.46523619       1.29098829
C       -4.49811519       5.45474477       5.18943062
O       -4.90516710       6.47760907       6.09179932
C       -3.89993361       7.17984011       6.69594529
C       -4.26830415       7.85094571       7.86467713
C       -3.32398508       8.57650943       8.59374617
C       -2.00861769       8.64047089       8.14143102
C       -1.63662220       7.99921671       6.96128953
C       -2.58557792       7.27440445       6.23354196
H       -6.03580437       2.69724063       3.97582990
H       -4.71098560       1.41661386       2.74922458
H       -1.40095084       3.61824353       2.69644689
H        0.52264497       2.49931249       1.24724304
H       -4.22818447       5.91030281       4.22867744
H       -3.65300499       4.89001297       5.60485235
H       -5.29556883       7.79290103       8.21713670
H       -3.62464243       9.07901157       9.50924733
H       -0.61298633       8.05611338       6.59938496
H       -2.27048297       6.79840730       5.31062890
C       -1.02561506       9.37210077       8.89775340
C       -0.20235035       9.98484080       9.53117340
Br       1.12879904      10.97558959      10.55535996
O        4.47654278      -5.52234782       6.70758558
C        4.41841828      -4.99918177       5.59576350
N        3.32062247      -4.23454255       5.25564712
N        3.21239756      -3.61330940       4.04710741
C        2.10918092      -2.95391632       3.86019443
C        1.88066422      -2.24276893       2.62774238
C        2.70212602      -2.12002680       1.52223512
C        2.11401717      -1.31820836       0.49730983
C        0.87181049      -0.87181049       0.87181049
S        0.40854116      -1.39455676       2.41503330
C        5.48881153      -5.13946149       4.51401757
O        6.53627009      -6.00952910       4.92877631
C        7.31919667      -6.52348314       3.93303920
C        8.03189300      -7.67484774       4.27718625
C        8.84164357      -8.31544432       3.33715279
C        8.94764020      -7.79143784       2.05144156
C        8.26429343      -6.62700041       1.70583459
C        7.45512907      -5.98792960       2.65046565
H        2.59703284      -4.14927602       5.96256603
H        1.32149091      -2.92018526       4.63514787
H        3.68094863      -2.58144745       1.45324517
H        2.58499874      -1.09049847      -0.45158665
H        5.90583430      -4.14405947       4.31727095
H        4.99010803      -5.53741102       3.62035127
H        7.94100005      -8.08370539       5.28090112
H        9.37617812      -9.21914908       3.61757412
H        8.35335855      -6.20897299       0.70615313
H        6.94736231      -5.07473460       2.35742226
C        9.76683041      -8.45686051       1.07177831
C       10.45290222      -9.01415199       0.25131034
Br      11.56222230      -9.91524517      -1.07531697
