117
Properties=species:S:1:pos:R:3 pbc="F F F"
C        0.00000000       0.00000000       0.00000000
C        0.88349128       0.88349128      -0.88349128
C        1.97380784       1.54337148      -0.31865785
C        2.76619442       2.35949183      -1.12032915
C        2.46391020       2.50332705      -2.47667864
C        1.38548172       1.82654922      -3.06103347
N        1.03686498       2.01107383      -4.40825984
N        1.81715336       2.76893771      -5.33718152
C        1.33802657       2.69815902      -6.58659839
H        0.44361548       2.15561137      -6.87687139
C        2.04030915       3.43376181      -7.66552881
C        1.48065681       3.42211113      -8.95081304
C        2.10255340       4.10323297     -10.00155779
C        3.29033463       4.80578029      -9.79799340
C        3.86257270       4.82686194      -8.52938803
C        3.24158136       4.14891892      -7.48255200
O        3.85994501       4.21368353      -6.25951702
C        0.58459186       1.02648142      -2.24029559
H        2.20682310       1.43717662       0.73533667
H        3.61374486       2.89357437      -0.70321498
H        3.07589656       3.15360584      -3.09620441
H        0.39711433       1.33623765      -4.81035445
H        0.55470403       2.88168210      -9.12500294
H        3.77353865       5.33584503     -10.61189318
H        4.78559191       5.36614593      -8.34316068
H        3.24836862       3.69423030      -5.67324659
H       -0.27468453       0.52438169      -2.67173532
C        1.51072795       4.08291095     -11.31416194
C        1.01507414       4.06589127     -12.41346792
Br       0.21364384       4.03837187     -14.19095270
C       -0.88349128      -0.88349128      -0.88349128
C       -0.44056790      -1.23859816      -2.15667111
C       -1.25277604      -2.02837657      -2.96486279
C       -2.49473636      -2.45818302      -2.49099651
C       -2.94042363      -2.12807203      -1.20456875
N       -4.21122848      -2.50364930      -0.74132087
N       -5.09705609      -3.36924769      -1.45696880
C       -6.19748594      -3.67093434      -0.75436369
H       -6.42354115      -3.28893024       0.23637315
C       -7.21465815      -4.56093174      -1.36400988
C       -8.39995364      -4.79925143      -0.65437591
C       -9.39158483      -5.62815630      -1.18760303
C       -9.22555103      -6.23687770      -2.43167959
C       -8.05441227      -6.01429427      -3.15011613
C       -7.06725411      -5.18715747      -2.61864071
O       -5.94051702      -5.01117877      -3.38144977
C       -2.12429700      -1.31647618      -0.41059570
H        0.52100661      -0.90135466      -2.52831500
H       -0.93692620      -2.30929980      -3.96430821
H       -3.13282891      -3.06204513      -3.13083276
H       -4.37551830      -2.42332154       0.25513341
H       -8.54544022      -4.33058026       0.31463142
H       -9.99449347      -6.87933511      -2.84744828
H       -7.89974620      -6.47467553      -4.12047679
H       -5.39740515      -4.38382979      -2.83461056
H       -2.47199256      -1.02373561       0.57429569
C      -10.60404466      -5.85819358      -0.44556260
C      -11.61947978      -6.05084980       0.17589625
Br     -13.26135247      -6.36235861       1.18074267
C       -0.88349128       0.88349128       0.88349128
C       -2.10340467       1.34291497       0.38951753
C       -2.89772394       2.15986108       1.18843038
C       -2.46741362       2.50436766       2.47213460
C       -1.25495182       2.02940198       2.98871060
N       -0.78504472       2.41802065       4.25313328
N       -1.54607548       3.19474145       5.18245565
C       -0.92646843       3.33388498       6.36243057
H        0.05524117       2.93420195       6.59713745
C       -1.59119686       4.11600948       7.43239342
C       -0.89559704       4.32684475       8.63113919
C       -1.47739045       5.06063757       9.66931615
C       -2.75871784       5.59640705       9.53898343
C       -3.46605654       5.39555759       8.35720854
C       -2.88511941       4.66528644       7.32264644
O       -3.63834044       4.50808490       6.18672022
C       -0.45636255       1.22684653       2.16815980
H       -2.43662883       1.08091257      -0.60887834
H       -3.84622017       2.54056304       0.82375100
H       -3.08334221       3.15505048       3.08731412
H       -0.02554021       1.87365122       4.64451500
H        0.10409262       3.91826176       8.74721992
H       -3.21114582       6.16707104      10.34306002
H       -4.46404395       5.80183472       8.22901985
H       -3.03545440       3.99049787       5.58989324
H        0.50129177       0.88076497       2.54195928
C       -0.74596105       5.26989423      10.89194556
C       -0.13338893       5.44514669      11.91589770
Br       0.85708838       5.72851510      13.57154170
C        0.88349128      -0.88349128       0.88349128
C        0.37375466      -1.37978953       2.08229298
C        1.18436276      -2.16937659       2.89227605
C        2.49190813      -2.45811082       2.49389693
C        3.00756712      -1.98529034       1.28020695
N        4.33829444      -2.21880049       0.89910372
N        5.23577965      -3.06999895       1.61749398
C        6.40979951      -3.22307334       0.98991113
H        6.67962169      -2.74124400       0.05523255
C        7.44816262      -4.07912011       1.61231704
C        8.70161409      -4.16198063       0.98998627
C        9.71540121      -4.95282935       1.53911361
C        9.50463405      -5.67676164       2.71271264
C        8.26589536      -5.60916934       3.34375796
C        7.25656426      -4.81987453       2.79661350
O        6.06241773      -4.79886958       3.47185825
C        2.19008501      -1.17555620       0.48572766
H       -0.63935448      -1.15220635       2.39581118
H        0.81603404      -2.55861555       3.83588462
H        3.12693956      -3.06235344       3.13641380
H        4.57298798      -2.04097660      -0.07025815
H        8.88230040      -3.60226378       0.07682488
H       10.29055121      -6.28990653       3.14081914
H        8.07527708      -6.16148997       4.25813147
H        5.51240350      -4.17177204       2.93166998
H        2.58788983      -0.77331820      -0.43977555
C       10.99767474      -5.02255868       0.88756743
C       12.07157881      -5.08095700       0.34189750
Br      13.80799088      -5.17538214      -0.54040461
