97
Properties=species:S:1:pos:R:3 pbc="F F F"
C        0.00000000       0.00000000       0.00000000
C        0.88158446       0.88158446      -0.88158446
C        2.13424738       0.42697677      -1.28280651
C        2.93741978       1.23747456      -2.09106422
C        2.50073906       2.50675955      -2.50167117
C        1.23390082       2.94518026      -2.08871344
C        0.42625962       2.13584848      -1.28126366
C        3.36710575       3.32110729      -3.34208488
N        4.51484904       2.83128291      -3.93030590
C        5.02950971       3.83877890      -4.60053616
C        6.19885524       3.93737115      -5.40485833
C        6.51181694       5.11156487      -5.98853768
C        5.67584712       6.29518491      -5.81547566
Br       6.18824566       7.87380268      -6.65586538
C        4.56905417       6.20265363      -5.05780973
N        4.25658922       4.98456421      -4.46244775
C        3.19468194       4.65301691      -3.65885556
H        2.49761287      -0.55036574      -0.97771278
H        3.91552567       0.87213231      -2.40102134
H        0.85010417       3.91504264      -2.39253842
H       -0.55294364       2.49319930      -0.97437616
H        6.81653398       3.05541627      -5.53083739
H        7.40331554       5.19047587      -6.60388320
H        3.89485631       7.03006983      -4.87816059
H        2.44223943       5.37936811      -3.39068681
C       -0.88158446      -0.88158446      -0.88158446
C       -2.21001652      -0.53087819      -1.10313596
C       -3.01302249      -1.34078749      -1.91214858
C       -2.50024246      -2.50659945      -2.50232787
C       -1.15810586      -2.84089811      -2.26879055
C       -0.35065431      -2.03156614      -1.46115131
C       -3.36891661      -3.32411401      -3.33726730
N       -4.61783035      -2.90832562      -3.75028189
C       -5.10062245      -3.89481763      -4.47338468
C       -6.33621212      -4.04173692      -5.16313567
C       -6.59335692      -5.17933979      -5.83922278
C       -5.62960730      -6.27435685      -5.88254355
Br      -6.07211005      -7.80838815      -6.83741552
C       -4.46043768      -6.13571324      -5.23336662
N       -4.20686339      -4.95592390      -4.54081389
C       -3.10080518      -4.59048282      -3.81526640
H       -2.63290199       0.36488833      -0.65694624
H       -4.05095580      -1.05702088      -2.08070263
H       -0.71562209      -3.72713053      -2.71493262
H        0.68722770      -2.30700308      -1.29485645
H       -7.04883259      -3.22551998      -5.12843506
H       -7.53522315      -5.29484008      -6.36761137
H       -3.69141645      -6.89708550      -5.21458478
H       -2.25467461      -5.25206871      -3.70555103
C       -0.88158446       0.88158446       0.88158446
C       -0.61281369       2.24290085       0.98831614
C       -1.42369203       3.04629575       1.79597079
C       -2.50440119       2.49936020       2.50540839
C       -2.76003594       1.12565230       2.38210629
C       -1.95173915       0.31861622       1.57301639
C       -3.32440268       3.36903247       3.33686277
N       -3.22435486       4.74466683       3.30741617
C       -4.10399865       5.18457602       4.18025010
C       -4.45813642       6.50333161       4.57961668
C       -5.40796935       6.68511605       5.51883409
C       -6.08855623       5.55503731       6.14291415
Br      -7.38352079       5.90159203       7.43280089
C       -5.75672701       4.30833378       5.76445674
N       -4.77602303       4.13466123       4.79291692
C       -4.27784523       2.97532992       4.25337925
H        0.21845130       2.69167364       0.45173756
H       -1.20610502       4.11078984       1.87178446
H       -3.59286048       0.66173359       2.90309116
H       -2.16834085      -0.74287897       1.48916994
H       -3.95014839       7.33965795       4.11298129
H       -5.68152016       7.69041492       5.82573952
H       -6.21149186       3.41625747       6.17533740
H       -4.63493875       2.00699313       4.57036247
C        0.88158446      -0.88158446       0.88158446
C        0.31108990      -1.91697194       1.61596884
C        1.12272919      -2.72228452       2.42094485
C        2.50623674      -2.49975886       2.50317418
C        3.06195672      -1.45284415       1.75299364
C        2.25297563      -0.64586044       0.94453569
C        3.31704886      -3.35949662       3.35375244
N        2.83176293      -4.51574903       3.92892590
C        3.83212455      -5.01703351       4.61966671
C        3.93405794      -6.19264333       5.41438344
C        5.09527102      -6.48126771       6.03538077
C        6.26108212      -5.61190806       5.91351751
Br       7.82040762      -6.08813566       6.80937043
C        6.16689845      -4.50201704       5.16060204
N        4.96325727      -4.21664099       4.52370292
C        4.63362983      -3.15833325       3.71459132
H       -0.75718064      -2.10985716       1.57228338
H        0.66702740      -3.53097599       2.99067592
H        4.12934150      -1.25189153       1.77645221
H        2.70363956       0.15839075       0.36938301
H        3.06556915      -6.83556954       5.50164894
H        5.17710483      -7.37824628       6.64232349
H        6.98182041      -3.80439383       5.01687248
H        5.34643532      -2.38049398       3.48536505
