105
Properties=species:S:1:pos:R:3 pbc="F F F"
C        0.00000000       0.00000000       0.00000000
C        0.88158446       0.88158446      -0.88158446
C        2.13424738       0.42697677      -1.28280651
C        2.93741978       1.23747456      -2.09106422
C        2.50073906       2.50675955      -2.50167117
C        1.23390082       2.94518026      -2.08871344
C        0.42625962       2.13584848      -1.28126366
C        3.36710575       3.32110729      -3.34208488
N        4.51484904       2.83128291      -3.93030590
C        5.02950971       3.83877890      -4.60053616
C        6.19885524       3.93737115      -5.40485833
C        6.51181694       5.11156487      -5.98853768
C        5.67584712       6.29518491      -5.81547566
C        4.56905417       6.20265363      -5.05780973
N        4.25658922       4.98456421      -4.46244775
C        3.19468194       4.65301691      -3.65885556
H        2.49761287      -0.55036574      -0.97771278
H        3.91552567       0.87213231      -2.40102134
H        0.85010417       3.91504264      -2.39253842
H       -0.55294364       2.49319930      -0.97437616
H        6.81653398       3.05541627      -5.53083739
H        7.40331554       5.19047587      -6.60388320
H        3.89485631       7.03006983      -4.87816059
H        2.44223943       5.37936811      -3.39068681
C        6.07247162       7.51712143      -6.46598328
C        6.40464464       8.54049326      -7.01078340
Br       6.94174032      10.19519896      -7.89167913
C       -0.88158446      -0.88158446      -0.88158446
C       -2.22464502      -0.56204065      -1.05734500
C       -3.02763128      -1.37178249      -1.86654479
C       -2.50012863      -2.50653834      -2.50250281
C       -1.14348427      -2.80963015      -2.31468011
C       -0.33607831      -2.00030466      -1.50698879
C       -3.36924818      -3.32500263      -3.33604710
N       -4.63992432      -2.93304538      -3.70346815
C       -5.11578143      -3.91266739      -4.44037595
C       -6.36562581      -4.07514953      -5.10030938
C       -6.61061738      -5.20077390      -5.80052821
C       -5.61921245      -6.26703988      -5.90025536
C       -4.43664125      -6.11357528      -5.27930100
N       -4.19589999      -4.94634006      -4.56136113
C       -3.08039925      -4.57006367      -3.85609148
H       -2.65902332       0.30925826      -0.57519484
H       -4.07713130      -1.11249401      -1.99905400
H       -0.68977863      -3.67085923      -2.79704738
H        0.71308270      -2.25121012      -1.37650441
H       -7.09879773      -3.28026883      -5.02372107
H       -7.56332728      -5.32806446      -6.30628286
H       -3.64710756      -6.85353129      -5.30244788
H       -2.21398500      -5.21062379      -3.78768557
C       -5.94992078      -7.44311574      -6.66253980
C       -6.22688900      -8.42807928      -7.30095302
Br      -6.67472320     -10.02068201      -8.33321320
C       -0.88158446       0.88158446       0.88158446
C       -0.63795740       2.24974795       0.95632532
C       -1.44874961       3.05308153       1.76412742
C       -2.50428107       2.49938223       2.50550648
C       -2.73485403       1.11875850       2.41418199
C       -1.92659786       0.31170613       1.60506777
C       -3.32504852       3.36926335       3.33598605
N       -3.25302430       4.74572982       3.27768374
C       -4.12403945       5.18567455       4.15911077
C       -4.49651357       6.50495571       4.53961543
C       -5.43125059       6.68682771       5.49384119
C       -6.07686401       5.55632814       6.15331555
C       -5.72771689       4.30905179       5.79274884
N       -4.76291392       4.13524758       4.80543967
C       -4.25237068       2.97534963       4.27883409
H        0.17355979       2.70389391       0.39462579
H       -1.25097622       4.12292238       1.81478072
H       -3.54793303       0.64913137       2.96062084
H       -2.12360300      -0.75527777       1.54630660
H       -4.01450305       7.34158252       4.04670206
H       -5.71872982       7.69250623       5.78643856
H       -6.15650336       3.41662554       6.22995783
H       -4.58383869       2.00672976       4.62172590
C       -7.06468690       5.82478800       7.16610142
C       -7.89198858       6.04962313       8.01430959
Br      -9.22966542       6.41316253       9.38579046
C        0.88158446      -0.88158446       0.88158446
C        0.32366015      -1.96224148       1.55812904
C        1.13530318      -2.76732052       2.36333486
C        2.50610903      -2.49965605       2.50340470
C        3.04941223      -1.40743065       1.81095165
C        2.24048525      -0.60046336       1.00242315
C        3.31730373      -3.36077342       3.35222077
N        2.85443194      -4.55338852       3.86861740
C        3.84753149      -5.04408139       4.57721189
C        3.96415421      -6.24344483       5.33348567
C        5.11263085      -6.51359161       5.98569703
C        6.24970570      -5.60013139       5.93667060
C        6.14174308      -4.46764770       5.22012675
N        4.95156633      -4.20165295       4.55038190
C        4.61229520      -3.12688671       3.76737250
H       -0.73473213      -2.19067185       1.46902019
H        0.68956736      -3.61158377       2.88752819
H        4.10733505      -1.17024076       1.88010943
H        2.68154028       0.23938556       0.47247710
H        3.11702503      -6.91910285       5.36665976
H        5.20564696      -7.42857302       6.56345462
H        6.93536583      -3.73718906       5.13053183
H        5.30401404      -2.31678676       3.59149356
C        7.44428044      -5.95120285       6.66009304
C        8.44473678      -6.24522519       7.26595933
Br      10.06239008      -6.72063445       8.24559389
