146
Properties=species:S:1:pos:R:3 pbc="F F F"
C        1.79140248       1.79140248      -1.79140248
C        3.15188652       1.51922559      -1.90210576
C        3.95822613       2.32662988      -2.71091769
C        3.41120755       3.40060208      -3.42599712
C        2.04105840       3.66959731      -3.28577905
C        1.23163455       2.86608399      -2.47649337
C        4.22016319       4.29741628      -4.26687126
C        5.30886863       3.97207375      -4.97674219
N        5.92047718       2.75165948      -5.09003354
C        6.90062879       2.99846784      -5.89932356
O        7.03352181       4.26378170      -6.36103889
C        6.02069874       4.98366894      -5.80450811
O        5.77896861       6.16286989      -5.96329278
C        7.90835265       2.03868782      -6.37851910
C        8.92948303       2.42759866      -7.25529036
C        9.87413883       1.49177918      -7.68739361
C        9.79730788       0.17202263      -7.24349267
C        8.78402731      -0.22368964      -6.37181730
C        7.83858903       0.71000618      -5.93915987
H        3.59818222       0.68682567      -1.36492970
H        5.02073692       2.10293012      -2.77047256
H        1.58513588       4.50511759      -3.81353188
H        0.17147379       3.08853731      -2.38963183
H        3.86088292       5.32479594      -4.31599626
H        9.00571879       3.45216600      -7.61147098
H       10.66385299       1.80185333      -8.36778281
H        8.72053742      -1.25196256      -6.02390268
H        7.04974063       0.39305091      -5.25891902
C       10.77252646      -0.78929157      -7.68894048
C       11.58927201      -1.59439221      -8.06200302
Br      12.90988049      -2.89617186      -8.66521359
C       -1.79140248      -1.79140248      -1.79140248
C       -3.01766967      -1.31239812      -2.24315008
C       -3.82380198      -2.12029921      -3.05167251
C       -3.40626050      -3.40426128      -3.42728497
C       -2.17527523      -3.87548663      -2.94567289
C       -1.36711756      -3.07176417      -2.13533017
C       -4.22872488      -4.30448868      -4.25123716
C       -5.07601797      -3.95366785      -5.22799875
N       -5.37619064      -2.69860546      -5.68737411
C       -6.22658741      -2.93779256      -6.63404022
O       -6.54828690      -4.22906559      -6.88098990
C       -5.83268751      -4.97844443      -5.99774386
O       -5.83001606      -6.18757962      -5.88753560
C       -6.89866292      -1.94225226      -7.48464439
C       -7.80740758      -2.32523517      -8.47972929
C       -8.43257866      -1.35362059      -9.26711237
C       -8.14961287      -0.00402638      -9.05918393
C       -7.24600833       0.38576617      -8.07191280
C       -6.61972127      -0.58382893      -7.28420489
H       -3.35967376      -0.31699669      -1.97326715
H       -4.78384614      -1.72964719      -3.38064627
H       -1.82639190      -4.87353677      -3.20385669
H       -0.41391380      -3.45483884      -1.78089029
H       -4.09961536      -5.36491333      -4.03714643
H       -8.04094277      -3.37254119      -8.65587181
H       -9.13699560      -1.65923995     -10.03725358
H       -7.02242323       1.43708999      -7.90714430
H       -5.91460591      -0.27148543      -6.51561921
C       -8.79616770       0.99457341      -9.87058106
C       -9.33765738       1.83090073     -10.55012616
Br     -10.21320039       3.18317128     -11.64889312
C       -1.79140248       1.79140248       1.79140248
C       -1.24815489       2.41312936       2.91193362
C       -2.05628954       3.22145944       3.71802472
C       -3.40649313       3.42726262       3.40405100
C       -3.93934739       2.77621643       2.28087093
C       -3.13535026       1.96547405       1.47338760
C       -4.30609125       4.24380536       4.23455411
C       -3.98099659       5.33318631       4.94350167
N       -2.75839691       5.93883891       5.06493438
C       -3.01388721       6.94265164       5.84188135
O       -4.28749953       7.09816074       6.27268213
C       -5.00443944       6.07730522       5.72713113
O       -6.19001718       5.85295395       5.86216015
C       -2.05397819       7.95002395       6.32155743
C       -2.45135637       8.99423063       7.16678505
C       -1.51294092       9.93181156       7.60855915
C       -0.18201839       9.82454966       7.20625513
C        0.22176741       8.78926603       6.36465635
C       -0.71472090       7.85143818       5.92159600
H       -0.20190096       2.27660225       3.17143439
H       -1.61290133       3.68524667       4.59599160
H       -4.98764673       2.90018711       2.01595152
H       -3.56790834       1.47791813       0.60381645
H       -5.34555623       3.91746157       4.23865732
H       -3.48440192       9.09357232       7.49138153
H       -1.82950391      10.73920995       8.26477528
H        1.25853984       8.70261215       6.04840523
H       -0.39173177       7.04614553       5.26383326
C        0.78261680      10.79071742       7.66407474
C        1.59049877      11.59988292       8.04749866
Br       2.89677560      12.90823510       8.66746272
C        1.79140248      -1.79140248       1.79140248
C        1.29305956      -2.28765722       2.99250109
C        2.10102272      -3.09613240       3.79861858
C        3.40481922      -3.42732217       3.40566537
C        3.89471953      -2.90129907       2.20041616
C        3.09093619      -2.09084345       1.39243225
C        4.30503288      -4.24926788       4.23014997
C        3.95845794      -5.25683971       5.04238692
N        2.70867258      -5.75621494       5.29728268
C        2.95082575      -6.71857804       6.12901640
O        4.23945756      -6.94057403       6.47831080
C        4.98339751      -6.01966155       5.80581674
O        6.18885803      -5.87827494       5.83799831
C        1.96115086      -7.61206713       6.75234159
C        2.34677861      -8.62065214       7.64494129
C        1.38054909      -9.44910462       8.22365791
C        0.03367002      -9.26863267       7.91052049
C       -0.35868842      -8.26816777       7.02267562
C        0.60554316      -7.43941322       6.44279870
H        0.28237357      -2.05268327       3.31488077
H        1.69458737      -3.46037100       4.73918123
H        4.90792013      -3.12433146       1.87153377
H        3.48894879      -1.70153264       0.45916150
H        5.36239519      -4.00455778       4.13472216
H        3.39200934      -8.77584718       7.90149926
H        1.68818081     -10.22948569       8.91582263
H       -1.40788972      -8.12470600       6.77566126
H        0.29125110      -6.66074154       5.74971791
C       -0.95944202     -10.12234480       8.50927258
C       -1.79117335     -10.83732872       9.01072745
Br      -3.13601258     -11.99339724       9.82153757
C       -0.00445707       0.01189536      -1.78238275
H       -0.66409135       0.67374010      -2.43557963
H        0.65740317      -0.63156657      -2.45157240
C       -0.90989263      -0.90692880      -0.91072765
C        0.90977584       0.90977584      -0.90977584
C       -0.00465871       1.77757030       0.00794375
H       -0.66225468       2.44313916      -0.64384735
H        0.64322798       2.43503045       0.67728295
C       -1.78241447       0.00034974      -0.00472694
H       -2.45427497      -0.65498947       0.64260836
H       -2.43311707       0.67328779      -0.65473579
C       -0.91132561       0.90220522       0.91563759
C       -0.01476271      -0.02253852       1.78660255
H       -0.67934791      -0.69751639       2.42135241
H        0.63392994       0.61504881       2.47327442
C        0.01484550      -1.77751727      -0.01636693
H        0.67870853      -2.42144646      -0.68295456
H       -0.62264859      -2.45592969       0.64226336
C        1.78714474       0.01002794       0.00389507
H        2.44202412       0.67113390       0.66197326
H        2.45385902      -0.65136977      -0.64189061
C        0.91606151      -0.90478549       0.90901405
