125
Properties=species:S:1:pos:R:3 pbc="F F F"
C        0.00000000       0.00000000       0.00000000
C        0.88153588       0.88153588      -0.88153588
C        2.25299214       0.65094065      -0.94015430
C        3.05935215       1.45848192      -1.74892721
C        2.50195963       2.49110338      -2.51499455
C        1.12000960       2.71877996      -2.42760982
C        0.31039665       1.91477614      -1.61901651
C        3.30770525       3.38682073      -3.36011565
C        4.42207714       3.07105356      -4.03392008
N        5.06867799       1.86576794      -4.09220254
C        6.06979490       2.11422878      -4.87667194
O        6.15915743       3.35712959      -5.39952946
C        5.12316435       4.07180861      -4.88251536
O        4.85116312       5.23877009      -5.08555566
C        7.08601565       1.13979913      -5.30577683
C        6.65629921      -0.19561434      -5.40768015
C        7.54270164      -1.20377603      -5.78919631
C        8.86845622      -0.89006981      -6.06997845
C        9.30922268       0.42963775      -5.96298139
C        8.42647075       1.44835564      -5.57642953
H        2.70787399      -0.14892830      -0.36214158
H        4.12993142       1.26777877      -1.76834730
H        0.65541052       3.52155349      -2.99690510
H       -0.75860780       2.10457468      -1.57359130
H        2.92208472       4.40158138      -3.44889564
H        5.62252797      -0.45973812      -5.18727217
H        7.19794037      -2.23282636      -5.86160155
H        9.56407837      -1.67395135      -6.36142544
H       10.35417200       0.65223453      -6.17036381
C        9.00131814       2.75976445      -5.42359828
C        9.48275284       3.85806934      -5.29560211
Br      10.26119202       5.63393544      -5.08864313
C       -0.88153588      -0.88153588      -0.88153588
C       -0.61730290      -0.98233882      -2.24444536
C       -1.42490720      -1.79107964      -3.05077443
C       -2.49145562      -2.51526545      -2.50133649
C       -2.75228138      -2.38551343      -1.12860457
C       -1.94830071      -1.57677487      -0.31911373
C       -3.38815325      -3.35804089      -3.30844749
C       -3.06170673      -4.06900411      -4.39633994
N       -1.84212078      -4.17541564      -5.00911203
C       -2.08536379      -4.97943066      -5.99590117
O       -3.33894557      -5.47226290      -6.10460801
C       -4.06615962      -4.90977558      -5.10155313
O       -5.24470643      -5.07540615      -4.85537629
C       -1.09676030      -5.46024009      -6.97459121
C        0.22397137      -5.58512275      -6.50721365
C        1.24419709      -6.01581096      -7.35650805
C        0.95744486      -6.32338904      -8.68242067
C       -0.34717209      -6.19411323      -9.16055651
C       -1.37771951      -5.75821726      -8.31531915
H        0.20903492      -0.43736884      -2.69275335
H       -1.20725645      -1.84372326      -4.11507777
H       -3.58154163      -2.92144000      -0.67088749
H       -2.16431892      -1.49820884       0.74296958
H       -4.41450861      -3.41040594      -2.94764720
H        0.46710296      -5.34432413      -5.47284085
H        2.26174452      -6.10556741      -6.98289268
H        1.75100933      -6.65324224      -9.34931954
H       -0.54817233      -6.42326114     -10.20533687
C       -2.66937524      -5.58689948      -8.92840616
C       -3.75113692      -5.44342084      -9.44186652
Br      -5.50025407      -5.21142801     -10.27208851
C       -0.88153588       0.88153588       0.88153588
C       -0.29717008       1.72362254       1.82329445
C       -1.10573390       2.53151265       2.62951472
C       -2.50026744       2.51567241       2.49211770
C       -3.07048233       1.64628442       1.54963263
C       -2.26583153       0.83570336       0.74265441
C       -3.39774255       3.32404828       3.33285080
C       -3.15173028       4.54279890       3.83252159
N       -2.02737212       5.31049669       3.68877965
C       -2.32056453       6.37854832       4.36158276
O       -3.54839252       6.44535641       4.92206755
C       -4.16696459       5.26555233       4.64497141
O       -5.28048130       4.91357828       4.98142930
C       -1.45699936       7.56066271       4.51392954
C       -0.59309424       7.83649446       3.43877633
C        0.28114534       8.92329313       3.48597412
C        0.30459328       9.74454231       4.60841583
C       -0.54074565       9.47548057       5.68561560
C       -1.41950409       8.38329833       5.64845349
H        0.78223400       1.76021805       1.94310321
H       -0.62724649       3.17146187       3.36734912
H       -4.15065267       1.59677198       1.42644447
H       -2.72939879       0.17635662       0.01380277
H       -4.36686787       2.87014068       3.53555319
H       -0.59521720       7.20112530       2.55371951
H        0.94577806       9.12383331       2.64866031
H        0.98911081      10.58884921       4.65181405
H       -0.49546628      10.11958960       6.56171445
C       -2.19176634       8.15138613       6.84152841
C       -2.83853598       7.95715966       7.84072865
Br      -3.88430777       7.64311189       9.45635093
C        0.88153588      -0.88153588       0.88153588
C        0.74423841      -2.26587325       0.83397543
C        1.55313197      -3.07241996       1.64120934
C        2.51330565      -2.50502498       2.48972693
C        2.62316645      -1.10680877       2.53642417
C        1.81531801      -0.29666501       1.73220629
C        3.36999538      -3.30538227       3.37926399
C        3.85685866      -4.53056896       3.13962316
N        3.67336479      -5.31824302       2.03504065
C        4.35919984      -6.37974580       2.32174998
O        5.03155535      -6.39033625       3.49392488
C        4.74371592      -5.21593092       4.11784148
O        5.13432762      -4.83674332       5.20441793
C        4.52766582      -7.55375991       1.45016588
C        4.49782682      -7.30429701       0.06624120
C        4.63039703      -8.34819406      -0.85046918
C        4.79096724      -9.65280599      -0.39540837
C        4.81234525      -9.91431918       0.97517739
C        4.67582016      -8.87206915       1.90336661
H        0.01285819      -2.73021096       0.17801811
H        1.41859851      -4.15075427       1.59670470
H        3.34752668      -0.63138359       3.19495885
H        1.92396400       0.78354373       1.77913791
H        3.64111834      -2.81709174       4.31435166
H        4.36853051      -6.28914066      -0.30760916
H        4.60301041      -8.14172704      -1.91802188
H        4.88817034     -10.47007469      -1.10669258
H        4.92185788     -10.94365559       1.31125687
C        4.63499404      -9.26022085       3.28946599
C        4.60080217      -9.58529790       4.45032422
Br       4.54551680     -10.11092000       6.32733379
