117
Properties=species:S:1:pos:R:3 pbc="F F F"
C        0.00000000       0.00000000       0.00000000
C        0.88153588       0.88153588      -0.88153588
C        2.25299214       0.65094065      -0.94015430
C        3.05935215       1.45848192      -1.74892721
C        2.50195963       2.49110338      -2.51499455
C        1.12000960       2.71877996      -2.42760982
C        0.31039665       1.91477614      -1.61901651
C        3.30770525       3.38682073      -3.36011565
C        4.42207714       3.07105356      -4.03392008
N        5.06867799       1.86576794      -4.09220254
C        6.06979490       2.11422878      -4.87667194
O        6.15915743       3.35712959      -5.39952946
C        5.12316435       4.07180861      -4.88251536
O        4.85116312       5.23877009      -5.08555566
C        7.08601565       1.13979913      -5.30577683
C        6.65629921      -0.19561434      -5.40768015
C        7.54270164      -1.20377603      -5.78919631
C        8.86845622      -0.89006981      -6.06997845
C        9.30922268       0.42963775      -5.96298139
C        8.42647075       1.44835564      -5.57642953
Br       9.18495031       3.17868753      -5.37477710
H        2.70787399      -0.14892830      -0.36214158
H        4.12993142       1.26777877      -1.76834730
H        0.65541052       3.52155349      -2.99690510
H       -0.75860780       2.10457468      -1.57359130
H        2.92208472       4.40158138      -3.44889564
H        5.62252797      -0.45973812      -5.18727217
H        7.19794037      -2.23282636      -5.86160155
H        9.56407837      -1.67395135      -6.36142544
H       10.35417200       0.65223453      -6.17036381
C       -0.88153588      -0.88153588      -0.88153588
C       -1.57284648      -0.31999955      -1.95124105
C       -2.37922772      -1.12879183      -2.75874172
C       -2.49006093      -2.50414535      -2.51385127
C       -1.79960946      -3.04726691      -1.41952301
C       -0.99356677      -2.24192895      -0.60869359
C       -3.34542258      -3.39450620      -3.31471285
C       -3.60952750      -3.29303978      -4.62448350
N       -3.16104372      -2.35282741      -5.51277733
C       -3.70962333      -2.72467468      -6.62639761
O       -4.45883236      -3.84917824      -6.60780588
C       -4.47043220      -4.28735617      -5.31969996
O       -5.04338865      -5.26082631      -4.87127392
C       -3.53365105      -2.06674159      -7.93119897
C       -2.29602349      -1.43199400      -8.14034755
C       -2.02986614      -0.76260966      -9.33564613
C       -2.99763048      -0.71697739     -10.33375698
C       -4.23302707      -1.33452167     -10.13429309
C       -4.51053489      -2.00589112      -8.93482991
Br      -6.26546350      -2.71279789      -8.76015355
H       -1.49657704       0.74231530      -2.16682553
H       -2.92017456      -0.66529468      -3.58058825
H       -1.87462588      -4.10858196      -1.19066129
H       -0.46163400      -2.68620407       0.22827989
H       -3.77808419      -4.22939335      -2.76508420
H       -1.52829020      -1.45415862      -7.36761320
H       -1.06954240      -0.27374691      -9.48342626
H       -2.79648562      -0.19075494     -11.26431190
H       -4.98325170      -1.27317501     -10.92034363
C       -0.88153588       0.88153588       0.88153588
C       -0.66173309       2.25525841       0.92709558
C       -1.47066049       3.06190949       1.73419129
C       -2.51233671       2.50641836       2.48930249
C       -2.70555042       1.11723157       2.44361740
C       -1.89805768       0.30688599       1.63924563
C       -3.37430195       3.30507647       3.37526321
C       -3.77384551       4.56965440       3.18355087
N       -3.47761452       5.40714501       2.14188892
C       -4.11721047       6.49039526       2.45308989
O       -4.85853716       6.47443368       3.58284563
C       -4.67796813       5.25045004       4.14907016
O       -5.15584486       4.83374989       5.18589412
C       -4.16364553       7.72098445       1.64696162
C       -4.06335899       7.55062876       0.25437727
C       -4.07878151       8.65197069      -0.60263028
C       -4.19126094       9.93547024      -0.07836632
C       -4.28160052      10.11808526       1.30215605
C       -4.26284684       9.01747765       2.17093143
Br      -4.29185444       9.41870102       4.02785948
H        0.13417944       2.71097106       0.34429564
H       -1.27149964       4.13071275       1.76384509
H       -3.49526758       0.64989082       3.02871072
H       -2.07168081      -0.76551508       1.61339246
H       -3.73012415       2.78108735       4.26135024
H       -3.97028596       6.55277597      -0.17299991
H       -3.99787926       8.50630831      -1.67747200
H       -4.19716601      10.79693741      -0.74255096
H       -4.35182076      11.13103746       1.69391211
C        0.88153588      -0.88153588       0.88153588
C        0.78056433      -0.79632922       2.26719353
C        1.58788256      -1.60519573       3.07368298
C        2.49004699      -2.51383094       2.50417963
C        2.58964661      -2.57116229       1.10559048
C        1.78550451      -1.76310337       0.29558143
C        3.38151533      -3.36732534       3.30580096
C        3.11693881      -3.90643565       4.50367631
N        1.97951271      -3.79045639       5.25667937
C        2.25357198      -4.50390763       6.30321601
O        3.44828960      -5.13473498       6.33279190
C        4.10209841      -4.78277881       5.19261111
O        5.21475190      -5.12107060       4.83966637
C        1.34809152      -4.74530293       7.43819716
C       -0.02641681      -4.75492006       7.13986178
C       -0.97371159      -4.95732276       8.14451076
C       -0.55909695      -5.14910579       9.45835602
C        0.80136024      -5.13194307       9.76853851
C        1.75991801      -4.92524825       8.76608966
Br       3.56657801      -4.82598088       9.34585605
H        0.08262972      -0.10571070       2.73274684
H        1.50078134      -1.51153491       4.15374124
H        3.29028884      -3.25427702       0.62930326
H        1.87415558      -1.83075663      -0.78535403
H        4.34235701      -3.58762622       2.84257851
H       -0.36892766      -4.60203361       6.11695607
H       -2.03366765      -4.95986859       7.90051463
H       -1.29457298      -5.30076473      10.24536070
H        1.10493350      -5.26690872      10.80492812
