97
Properties=species:S:1:pos:R:3 pbc="F F F"
C        0.00000000       0.00000000       0.00000000
C        0.87812820       0.87812820      -0.87812820
C        1.70451427       0.31407540      -1.84404548
C        2.50685678       1.14947288      -2.61718426
C        2.42758628       2.51367162      -2.39324434
N        1.63688613       3.09813078      -1.47687497
C        0.87731573       2.25854074      -0.73013234
N        3.24189317       3.43698190      -3.07269793
S        4.82396630       3.53562179      -2.48621092
O        5.41829968       2.21757287      -2.43802530
O        5.45358987       4.61865625      -3.21398965
C        4.74820762       4.15031001      -0.81113250
C        4.72407549       5.44260406      -0.31233449
C        4.60075919       5.47521009       1.10847072
C        4.54440481       4.20596755       1.62548311
S        4.65650701       2.99317863       0.44929154
H        1.73979995      -0.76116719      -1.99510575
H        3.17699094       0.74349552      -3.36752033
H        0.25621531       2.74640258       0.01631871
H        2.81141028       4.35936998      -3.03838101
H        4.78420321       6.31895340      -0.94789307
H        4.55230081       6.38049113       1.70182420
C        4.40235708       3.92638083       3.03092031
C        4.28339210       3.69222695       4.20797396
Br       4.09103578       3.31361994       6.11117016
C       -0.87812820      -0.87812820      -0.87812820
C       -1.69741117      -0.31475332      -1.85047066
C       -2.50004222      -1.15001445      -2.62345724
C       -2.42814488      -2.51351027      -2.39284709
N       -1.64441278      -3.09735622      -1.47012289
C       -0.88441141      -2.25782747      -0.72374992
N       -3.24358149      -3.43619187      -3.07179965
S       -4.82879020      -3.52479152      -2.49221730
O       -5.41721178      -2.20379942      -2.45288666
O       -5.46006589      -4.60827213      -3.21789775
C       -4.76363222      -4.13203671      -0.81398120
C       -4.74780880      -5.42209786      -0.30910738
C       -4.63121516      -5.44867423       1.11239082
C       -4.57135708      -4.17731815       1.62378599
S       -4.67238627      -2.96949995       0.44149213
H       -1.72700365       0.75992770      -2.00666256
H       -3.16480748      -0.74443271      -3.37876660
H       -0.26904119      -2.74508329       0.02782531
H       -2.81755062      -4.36039092      -3.03121973
H       -4.80906726      -6.30110232      -0.94088011
H       -4.58970564      -6.35140397       1.71014186
C       -4.43451134      -3.89186645       3.02856019
C       -4.31990303      -3.65280065       4.20505859
Br      -4.13459109      -3.26625147       6.10735699
C       -0.87812820       0.87812820       0.87812820
C       -1.02784122       0.60191242       2.23288152
C       -1.85392814       1.41863756       3.00094821
C       -2.47708427       2.48410521       2.37331276
N       -2.35197412       2.78952430       1.07039347
C       -1.55204196       1.96869171       0.34525514
N       -3.38109560       3.32822449       3.04225292
S       -4.92678310       2.67494629       3.24406963
O       -4.83727544       1.37146971       3.86515271
O       -5.73456796       3.72976633       3.82190148
C       -5.63965536       2.44751613       1.62247864
C       -6.35751440       3.31075222       0.81074742
C       -6.68927623       2.72530994      -0.44708760
C       -6.21493416       1.44101957      -0.53106448
S       -5.40681263       0.92800494       0.86557652
H       -0.52139389      -0.24145804       2.69380266
H       -2.00858008       1.22273011       4.05669661
H       -1.47479171       2.22055776      -0.70905030
H       -3.45164727       4.21363032       2.54388368
H       -6.62041056       4.31852214       1.11211698
H       -7.23784534       3.22788835      -1.23476595
C       -6.38377251       0.60625959      -1.69221451
C       -6.52517464      -0.09285189      -2.66467766
Br      -6.75380991      -1.22325602      -4.23706832
C        0.87812820      -0.87812820       0.87812820
C        1.24407035      -0.46418946       2.15437534
C        2.06333679      -1.28804578       2.92213135
C        2.46202886      -2.49646170       2.37601167
N        2.12386586      -2.93625335       1.15177267
C        1.33668904      -2.10677996       0.42251980
N        3.34104676      -3.36984090       3.04068535
S        4.96702267      -2.91492151       2.96385484
O        5.12075738      -1.54635203       3.40678845
O        5.71362028      -3.99324748       3.57936801
C        5.47322233      -2.98385291       1.25257489
C        5.96412955      -4.02852225       0.48636225
C        6.18845122      -3.64951675      -0.87046941
C        5.86493078      -2.33186242      -1.07190395
S        5.32327633      -1.54887939       0.32823837
H        0.91060404       0.48982435       2.55295881
H        2.38353301      -0.98968962       3.91478417
H        1.08606962      -2.47058449      -0.57035494
H        3.23573399      -4.30999217       2.66343511
H        6.14275570      -5.01919630       0.88909769
H        6.55955042      -4.31349126      -1.64207394
C        5.97226739      -1.67377898      -2.34822877
C        6.06216180      -1.12263409      -3.41715080
Br       6.20751346      -0.23147943      -5.14550732
