177
Properties=species:S:1:pos:R:3 pbc="F F F"
C        0.00000000       0.00000000       0.00000000
C        0.88277110       0.88277110      -0.88277110
C        0.32339489       1.98673166      -1.52425628
C        1.12381077       2.79207816      -2.33019585
C        2.47737511       2.48794644      -2.48925443
C        3.04680481       1.37596384      -1.84509274
C        2.23648197       0.57000177      -1.03603534
C        4.49985292       1.11777471      -2.07191898
O        5.14897124       1.83812247      -2.83105049
N        5.08822525       0.05914622      -1.40805666
N        6.45853929      -0.13700476      -1.60143683
C        7.06716877      -1.22838551      -1.01763803
O        6.45151483      -2.04455210      -0.33607608
C        8.52953508      -1.38190442      -1.26860321
C        9.10940128      -2.65119405      -1.12087883
C       10.47892192      -2.83099058      -1.34026286
C       11.26757560      -1.73487479      -1.68916704
C       10.70301088      -0.47049265      -1.84701726
C        9.33693570      -0.29116635      -1.62253544
O       12.62043323      -1.98590595      -1.98230336
C       13.58488024      -1.08779632      -1.55326455
O       13.43763085      -0.15017313      -0.78020517
C       14.89109704      -1.45020233      -2.16233589
C       16.06453950      -0.99080379      -1.54767222
C       17.31177312      -1.29198693      -2.09759595
C       17.39283105      -2.04341265      -3.27030967
C       16.22501485      -2.48899763      -3.88886284
C       14.97460177      -2.19897864      -3.34464279
H       -0.73037707       2.22581548      -1.40399359
H        0.69761358       3.65531135      -2.83622173
H        3.09074483       3.12715627      -3.12359091
H        2.62825760      -0.30077646      -0.52312922
H        4.64012391      -0.56872886      -0.74691854
H        6.89608802       0.47098151      -2.29118980
H        8.49318730      -3.50454825      -0.84121482
H       10.92032891      -3.81873499      -1.23895890
H       11.31189382       0.38191502      -2.13539404
H        8.93397799       0.71293487      -1.70872538
H       16.00947636      -0.39553529      -0.63673819
H       18.21984649      -0.93746359      -1.61512835
H       18.36678228      -2.27052491      -3.69582748
H       14.07564213      -2.54228923      -3.84981042
C       16.31027805      -3.25011898      -5.10829897
C       16.38168599      -3.88755811      -6.12957673
Br      16.49714659      -4.91824328      -7.78089649
C       -0.88277110      -0.88277110      -0.88277110
C       -1.56295881      -0.31336161      -1.95806242
C       -2.36901203      -1.11379422      -2.76327852
C       -2.48949807      -2.47741184      -2.48766605
C       -1.80621311      -3.05699143      -1.40465686
C       -0.99725820      -2.24659774      -0.59866315
C       -1.99321721      -4.52057997      -1.17574942
O       -2.75397402      -5.17065502      -1.89351515
N       -1.29106704      -5.11739232      -0.14696878
N       -1.44802387      -6.49606657       0.02111907
C       -0.82465011      -7.11577662       1.08400545
O       -0.13837948      -6.50319811       1.89853878
C       -1.03804138      -8.58682993       1.20863744
C       -0.84695840      -9.19222384       2.46009618
C       -1.03031020     -10.57034242       2.61245841
C       -1.38673056     -11.34148300       1.50634572
C       -1.58746401     -10.75173524       0.25966377
C       -1.39892645      -9.37695049       0.10757214
O       -1.64249383     -12.70633954       1.73200273
C       -1.21264791     -13.63934576       0.80164521
O       -0.46560252     -13.45221001      -0.14985036
C       -1.78261596     -14.96763753       1.14702289
C       -1.15203439     -16.11527352       0.64589999
C       -1.66569936     -17.38179956       0.93011678
C       -2.81811647     -17.50793304       1.70632143
C       -3.45278222     -16.36569295       2.19359511
C       -2.94462712     -15.09638223       1.92074342
H       -1.47277823       0.74820605      -2.17485981
H       -2.90503967      -0.67985009      -3.60425691
H       -3.12443454      -3.09068039      -3.12637708
H       -0.45497123      -2.64615075       0.25051162
H       -0.62579150      -4.66840548       0.47588339
H       -2.14167189      -6.93564344      -0.58094400
H       -0.56149872      -8.58945539       3.32110023
H       -0.89548506     -11.03194320       3.58687544
H       -1.88177876     -11.34740473      -0.60001939
H       -1.51814410      -8.95304220      -0.88445195
H       -0.25695765     -16.02492484       0.03120323
H       -1.17089407     -18.26976415       0.54314697
H       -3.21551351     -18.49667021       1.92009886
H       -3.46217467     -14.21780434       2.29681570
C       -4.65156952     -16.49735912       2.98047059
C       -5.65555388     -16.60762955       3.63947882
Br      -7.27891168     -16.78592749       4.70503938
C       -0.88277110       0.88277110       0.88277110
C       -1.87163605       0.29368335       1.66906344
C       -2.67850656       1.09449264       2.47308557
C       -2.49124855       2.47822754       2.48509988
C       -1.49591603       3.07777006       1.69417530
C       -0.68786407       2.26690773       0.88774730
C       -1.36489484       4.56364614       1.76100562
O       -2.13595515       5.22585573       2.45633332
N       -0.36024189       5.16595208       1.02923417
N       -0.22878788       6.55296742       1.14121606
C        0.71180580       7.20052207       0.36770502
O        1.43921037       6.60778174      -0.42553257
C        0.79605694       8.68076962       0.53152119
C        1.36052328       9.44258356      -0.50297421
C        1.46311740      10.83203374      -0.38072214
C        1.01671505      11.45296610       0.78561680
C        0.44681697      10.70912268       1.81722979
C        0.34985088       9.32178649       1.69636918
O        1.06348382      12.85855337       0.82176109
C        1.43869057      13.49429808       1.99474096
O        1.91430160      12.98222707       2.99973741
C        1.20363296      14.95474809       1.85211546
C        1.90340685      15.82895412       2.69586066
C        1.69801871      17.20695739       2.60844346
C        0.78431042      17.71786402       1.68617448
C        0.07855245      16.84726309       0.85616942
C        0.28064129      15.46981404       0.93109317
H       -2.02137394      -0.78315296       1.66121102
H       -3.45375794       0.64558325       3.08980547
H       -3.13086536       3.09170232       3.11892434
H        0.08906387       2.68291049       0.25676374
H        0.33425358       4.70065291       0.45191425
H       -0.94763910       7.01913556       1.69148467
H        1.71525409       8.95508752      -1.40997955
H        1.88749436      11.41887213      -1.19082494
H        0.08261520      11.19197692       2.71984116
H       -0.05669020       8.76457066       2.53437738
H        2.61185257      15.43734157       3.42519025
H        2.24624806      17.88198822       3.26177109
H        0.62565944      18.79139872       1.62634557
H       -0.29011926      14.80681877       0.28622529
C       -0.87633158      17.37550726      -0.08338079
C       -1.67604694      17.81791176      -0.87025409
Br      -2.96911906      18.53324241      -2.14256167
C        0.88277110      -0.88277110       0.88277110
C        1.24300973      -2.15369695       0.43767615
C        2.04552723      -2.96107500       1.23948255
C        2.48186944      -2.49233062       2.48037591
C        2.12158915      -1.21181853       2.93445372
C        1.31427587      -0.40482105       2.12342218
C        2.62560778      -0.78907091       4.27486792
O        3.29548065      -1.56240810       4.96025545
N        2.32347897       0.48430489       4.71625406
N        2.84236339       0.87369525       5.95430323
C        2.50000377       2.10840919       6.46482671
O        1.74842260       2.88300806       5.87762426
C        3.08323199       2.45917992       7.79218180
C        2.44763765       3.43883987       8.57028828
C        2.97062577       3.79887450       9.81644293
C        4.13964132       3.18962738      10.27185390
C        4.77637112       2.20953768       9.51270204
C        4.25648090       1.85483873       8.26666263
O        4.57452509       3.52480855      11.56711411
C        5.93008423       3.68614628      11.80641052
O        6.83059265       3.74205610      10.97912634
C        6.15241001       3.81895629      13.26977688
C        7.33565762       4.42690871      13.71265902
C        7.59310141       4.55445772      15.07873846
C        6.67576917       4.06510333      16.00906224
C        5.50510568       3.44849900      15.56827339
C        5.23541114       3.32145527      14.20631007
H        0.90398531      -2.52265122      -0.52720453
H        2.33180647      -3.95476334       0.90257685
H        3.10879069      -3.13594260       3.09675873
H        1.00584730       0.58734767       2.43211073
H        1.80245136       1.19535821       4.21122043
H        3.33308172       0.14754976       6.47272737
H        1.53889045       3.91873152       8.20969493
H        2.46640603       4.54742327      10.42157006
H        5.67768189       1.72100540       9.87252640
H        4.79889357       1.12157945       7.67832413
H        8.06150911       4.80333699      12.99250713
H        8.51015678       5.03077749      15.41813196
H        6.88436833       4.16343931      17.07115583
H        4.32479243       2.82426783      13.88263872
C        4.56758573       2.92911827      16.52999059
C        3.78241276       2.49413690      17.33542874
Br       2.51285448       1.79080881      18.63775412
