169
Properties=species:S:1:pos:R:3 pbc="F F F"
C        0.00000000       0.00000000       0.00000000
C        0.88277110       0.88277110      -0.88277110
C        0.32339489       1.98673166      -1.52425628
C        1.12381077       2.79207816      -2.33019585
C        2.47737511       2.48794644      -2.48925443
C        3.04680481       1.37596384      -1.84509274
C        2.23648197       0.57000177      -1.03603534
C        4.49985292       1.11777471      -2.07191898
O        5.14897124       1.83812247      -2.83105049
N        5.08822525       0.05914622      -1.40805666
N        6.45853929      -0.13700476      -1.60143683
C        7.06716877      -1.22838551      -1.01763803
O        6.45151483      -2.04455210      -0.33607608
C        8.52953508      -1.38190442      -1.26860321
C        9.10940128      -2.65119405      -1.12087883
C       10.47892192      -2.83099058      -1.34026286
C       11.26757560      -1.73487479      -1.68916704
C       10.70301088      -0.47049265      -1.84701726
C        9.33693570      -0.29116635      -1.62253544
O       12.62043323      -1.98590595      -1.98230336
C       13.58488024      -1.08779632      -1.55326455
O       13.43763085      -0.15017313      -0.78020517
C       14.89109704      -1.45020233      -2.16233589
C       16.06453950      -0.99080379      -1.54767222
C       17.31177312      -1.29198693      -2.09759595
C       17.39283105      -2.04341265      -3.27030967
C       16.22501485      -2.48899763      -3.88886284
Br      16.33698842      -3.48855510      -5.49031114
C       14.97460177      -2.19897864      -3.34464279
H       -0.73037707       2.22581548      -1.40399359
H        0.69761358       3.65531135      -2.83622173
H        3.09074483       3.12715627      -3.12359091
H        2.62825760      -0.30077646      -0.52312922
H        4.64012391      -0.56872886      -0.74691854
H        6.89608802       0.47098151      -2.29118980
H        8.49318730      -3.50454825      -0.84121482
H       10.92032891      -3.81873499      -1.23895890
H       11.31189382       0.38191502      -2.13539404
H        8.93397799       0.71293487      -1.70872538
H       16.00947636      -0.39553529      -0.63673819
H       18.21984649      -0.93746359      -1.61512835
H       18.36678228      -2.27052491      -3.69582748
H       14.07564213      -2.54228923      -3.84981042
C       -0.88277110      -0.88277110      -0.88277110
C       -0.32526017      -1.51762354      -1.99149913
C       -1.12637382      -2.32108188      -2.79862907
C       -2.47888399      -2.48388899      -2.49180299
C       -3.04654087      -1.84603132      -1.37528921
C       -2.23555927      -1.03931641      -0.56764342
C       -4.50092034      -2.06812331      -1.12050295
O       -5.17076915      -2.75353915      -1.89383589
N       -5.06518125      -1.48999896      -0.00024793
N       -6.41752156      -1.74729201       0.24184220
C       -7.03654928      -1.12651803       1.30664603
O       -6.44846407      -0.34692428       2.05234955
C       -8.48131368      -1.44007396       1.50515377
C       -9.27320464      -0.53840953       2.23252811
C      -10.62985241      -0.80356829       2.44522649
C      -11.18561338      -1.98061695       1.94436249
C      -10.41231953      -2.88068828       1.21347232
C       -9.05709802      -2.61761184       1.00640506
O      -12.57129229      -2.15704391       2.11150556
C      -13.06138495      -3.41476441       2.42580089
O      -12.41870771      -4.40339971       2.75444453
C      -14.54461999      -3.39437560       2.33576499
C      -15.26871109      -4.37756295       3.02486611
C      -16.66245115      -4.40652359       2.95159260
C      -17.33919124      -3.46104781       2.18051096
C      -16.61804000      -2.49130248       1.48446241
Br     -17.53661041      -1.22456852       0.42243447
C      -15.22627441      -2.44971864       1.55572712
H        0.72701966      -1.39205495      -2.23439671
H       -0.70208323      -2.82032807      -3.66673536
H       -3.09309733      -3.11522564      -3.13316905
H       -2.62832667      -0.52288362       0.30059993
H       -4.58753615      -0.93391566       0.70313822
H       -6.90078467      -2.27448896      -0.48298570
H       -8.83569289       0.37670272       2.62913630
H      -11.24204168      -0.09497865       2.99646750
H      -10.84653770      -3.79015651       0.80749132
H       -8.47007568      -3.35831824       0.47275567
H      -14.74722035      -5.12520144       3.62174253
H      -17.22064198      -5.16820532       3.49133604
H      -18.42412238      -3.49193150       2.12396903
H      -14.68145429      -1.69559955       0.99389052
C       -0.88277110       0.88277110       0.88277110
C       -1.81715334       0.28806271       1.72916678
C       -2.62389303       1.08876886       2.53342288
C       -2.49096864       2.47800479       2.48560254
C       -1.55071588       3.08321496       1.63393056
C       -0.74249166       2.27242079       0.82760663
C       -1.47589044       4.57446747       1.63918869
O       -2.24553291       5.23385650       2.33875478
N       -0.52419829       5.18512034       0.84610951
N       -0.44333516       6.57945497       0.90018123
C        0.44102920       7.23121697       0.06623352
O        1.16063409       6.63568197      -0.73200908
C        0.47305176       8.71889743       0.17038819
C        0.96745951       9.46021275      -0.91366718
C        1.01979919      10.85628943      -0.84829603
C        0.59380546      11.50532104       0.31035226
C        0.09315695      10.78162998       1.39106246
C        0.04640633       9.38793224       1.32677889
O        0.58650430      12.91200303       0.29133191
C        0.98055944      13.60722339       1.42368452
O        1.51371805      13.15353191       2.42784904
C        0.68291715      15.05096336       1.23518439
C        1.37918337      15.98361937       2.01697193
C        1.11650625      17.34833508       1.88555331
C        0.14908641      17.78751998       0.98129451
C       -0.55277624      16.85877815       0.21332568
Br      -1.87901021      17.45533780      -0.99560356
C       -0.29388878      15.49399866       0.33237848
H       -1.92454554      -0.79314763       1.76803408
H       -3.35692946       0.63544476       3.19677244
H       -3.12977516       3.09129048       3.12042638
H       -0.00702547       2.69238912       0.15119577
H        0.16570919       4.72409435       0.25992843
H       -1.15862140       7.03935999       1.46027794
H        1.30649047       8.95115967      -1.81481533
H        1.38972369      11.42642118      -1.69614467
H       -0.25531448      11.28551620       2.28837222
H       -0.30581831       8.84915396       2.20066598
H        2.12963630      15.64817087       2.73214468
H        1.66208418      18.06886948       2.49072596
H       -0.05388408      18.85108032       0.88712045
H       -0.86211774      14.78496120      -0.26391562
C        0.88277110      -0.88277110       0.88277110
C        1.52772343      -1.98422274       0.32243667
C        2.33121831      -2.79133827       1.12352818
C        2.48396746      -2.49177223       2.47883628
C        1.83590121      -1.38261508       3.04934511
C        1.02920645      -0.57494334       2.23836930
C        2.04763346      -1.13534836       4.50656478
O        2.73367872      -1.90858330       5.17588218
N        1.45929610      -0.02206799       5.07406405
N        1.70692283       0.21333726       6.42938579
C        1.07594361       1.27057700       7.05105467
O        0.29539736       2.01511589       6.46275733
C        1.37953722       1.46217925       8.49887589
C        0.46868612       2.17924990       9.28964984
C        0.72433115       2.38528585      10.64914891
C        1.90102271       1.88817925      11.20902437
C        2.81018964       1.16747004      10.43681589
C        2.55658395       0.96706892       9.07878977
O        2.06804087       2.04794791      12.59673768
C        3.32083610       2.36685854      13.09637091
O        4.31132309       2.70538484      12.46172464
C        3.29202109       2.26767287      14.57888238
C        4.26659559       2.95828972      15.31310206
C        4.28756770       2.87670927      16.70652371
C        3.34272602       2.09581506      17.37281712
C        2.38161755       1.39831447      16.64157699
Br       1.11583744       0.32306851      17.54597553
C        2.34802298       1.47779779      15.25004073
H        1.41000555      -2.22146506      -0.73203861
H        2.83829840      -3.65380862       0.69703965
H        3.11546877      -3.13303367       3.09298957
H        0.50513031       0.28775197       2.63323202
H        0.90184141       0.68083521       4.59730738
H        2.23558878      -0.51121590       6.91145465
H       -0.44615952       2.57296962       8.84898302
H        0.00870736       2.92849195      11.26033742
H        3.71946846       0.76436375      10.87409817
H        3.30406392       0.44149492       8.49306924
H        5.01372838       3.56284288      14.79979375
H        5.04255787       3.41764359      17.27259697
H        3.36738786       2.03285719      18.45755417
H        1.60064877       0.91473549      14.69725004
