118
Properties=species:S:1:pos:R:3 pbc="F F F"
C        1.79285412       1.79285412      -1.79285412
C        1.43021367       3.11908410      -2.01534714
C        2.23151560       3.92131575      -2.82326105
C        3.38950653       3.39329757      -3.40068369
C        3.76196008       2.06070738      -3.17358651
C        2.95124455       1.26068512      -2.36549626
N        4.94973064       1.61631903      -3.78608124
C        5.55951995       0.37853467      -3.67776343
O        5.14747176      -0.56246527      -3.00973943
C        6.78770364       0.28914843      -4.44749200
C        7.69972056      -0.74063312      -4.58372968
C        8.71131745      -0.27726602      -5.45977528
C        8.35772708       1.00596994      -5.80773365
O        7.19502484       1.36227285      -5.19863880
H        0.53092349       3.53216086      -1.56639551
H        1.95715085       4.95784778      -3.00271783
H        3.99834120       4.04186739      -4.02632256
H        3.19574076       0.22227108      -2.16884605
H        5.44473817       2.28216425      -4.36984333
H        7.63052651      -1.70665217      -4.10051070
H        9.58736023      -0.81614423      -5.79379715
C        9.10613088       1.86097258      -6.69230261
C        9.73291907       2.57703729      -7.43312911
Br      10.74638255       3.73485335      -8.63098291
C       -1.79285412      -1.79285412      -1.79285412
C       -1.40885131      -3.10697856      -2.04881504
C       -2.21026697      -3.90908050      -2.85674492
C       -3.38965538      -3.39307744      -3.40075496
C       -3.78350001      -2.07288113      -3.13987282
C       -2.97262769      -1.27280335      -2.33199490
N       -4.99172025      -1.64038336      -3.72002730
C       -5.62332332      -0.41736767      -3.57512706
O       -5.21651502       0.51841845      -2.89664936
C       -6.86813364      -0.33746397      -4.31874646
C       -7.80265682       0.67638395      -4.41654425
C       -8.82227343       0.21015120      -5.28170449
C       -8.45066148      -1.05872227      -5.66204692
O       -7.26929070      -1.40360266      -5.08304313
H       -0.49287433      -3.51073358      -1.62587194
H       -1.91931368      -4.93622324      -3.06217954
H       -3.99804804      -4.04130303      -4.02718007
H       -3.23341788      -0.24351973      -2.10992029
H       -5.48515676      -2.30442569      -4.30716330
H       -7.74274545       1.63395387      -3.91559346
H       -9.71517988       0.73787418      -5.58770746
C       -9.19969681      -1.91101968      -6.54868957
C       -9.82701390      -2.62481876      -7.29125280
Br     -10.84133258      -3.77897151      -8.49191473
C       -1.79285412       1.79285412       1.79285412
C       -3.05108346       1.33597581       2.17758563
C       -3.85676241       2.14205514       2.97727485
C       -3.39860964       3.39686821       3.38800993
C       -2.12978825       3.85769496       3.00877074
C       -1.32873734       3.04555390       2.20313470
N       -1.74569274       5.12902161       3.47741657
C       -0.53909151       5.78202569       3.29470085
O        0.42089536       5.34366469       2.67197659
C       -0.50166775       7.08222093       3.94045539
C        0.50700212       8.02349522       4.02632401
C       -0.00857267       9.10744352       4.77781052
C       -1.30039012       8.76574569       5.10529486
O       -1.61067119       7.53926466       4.60600065
H       -3.40890918       0.36011665       1.86045402
H       -4.84031444       1.79426871       3.28313330
H       -4.04726236       4.00581775       4.01345104
H       -0.34382676       3.36419722       1.87883392
H       -2.42103926       5.63719642       4.03851007
H        1.49414593       7.92502569       3.59350528
H        0.50203425      10.02266571       5.04438170
C       -2.20607777       9.58439070       5.86893760
C       -2.96459118      10.27000590       6.50848839
Br      -4.19104320      11.37858769       7.54258792
C        1.79285412      -1.79285412       1.79285412
C        3.09912341      -1.39635674       2.06916475
C        3.90438695      -2.20280131       2.86890413
C        3.39802457      -3.39752439       3.38793882
C        2.08132233      -3.79692676       3.11800487
C        1.28065143      -2.98511102       2.31166349
N        1.65148782      -5.00938324       3.69125985
C        0.39781088      -5.59221588       3.62579129
O       -0.57211408      -5.13110562       3.03575438
C        0.32304679      -6.84520136       4.35609593
C       -0.73362095      -7.71161447       4.56482360
C       -0.23746141      -8.77883325       5.35245488
C        1.09147096      -8.50275222       5.57720749
O        1.44304055      -7.33202142       4.98087453
H        3.49458501      -0.46718806       1.66770679
H        4.92525259      -1.90186353       3.09060034
H        4.04759418      -4.00805487       4.01088209
H        0.25901407      -3.25806350       2.06978032
H        2.32961691      -5.52522645       4.24190239
H       -1.73901784      -7.57562851       4.18777437
H       -0.78467685      -9.64073457       5.70895544
C        1.99321992      -9.33044622       6.33573993
C        2.74843467     -10.02363994       6.97101085
Br       3.96955305     -11.14447556       7.99819020
C       -0.00445707       0.01189536      -1.78238275
H       -0.66409135       0.67374010      -2.43557963
H        0.65740317      -0.63156657      -2.45157240
C       -0.90989263      -0.90692880      -0.91072765
C        0.90977584       0.90977584      -0.90977584
C       -0.00465871       1.77757030       0.00794375
H       -0.66225468       2.44313916      -0.64384735
H        0.64322798       2.43503045       0.67728295
C       -1.78241447       0.00034974      -0.00472694
H       -2.45427497      -0.65498947       0.64260836
H       -2.43311707       0.67328779      -0.65473579
C       -0.91132561       0.90220522       0.91563759
C       -0.01476271      -0.02253852       1.78660255
H       -0.67934791      -0.69751639       2.42135241
H        0.63392994       0.61504881       2.47327442
C        0.01484550      -1.77751727      -0.01636693
H        0.67870853      -2.42144646      -0.68295456
H       -0.62264859      -2.45592969       0.64226336
C        1.78714474       0.01002794       0.00389507
H        2.44202412       0.67113390       0.66197326
H        2.45385902      -0.65136977      -0.64189061
C        0.91606151      -0.90478549       0.90901405
