89
Properties=species:S:1:pos:R:3 pbc="F F F"
C        0.00000000       0.00000000       0.00000000
C        0.88295009       0.88295009      -0.88295009
C        0.52030965       2.20918007      -1.10544311
C        1.32161157       3.01141172      -1.91335702
C        2.47960251       2.48339354      -2.49077966
C        2.85205605       1.15080335      -2.26368248
C        2.04134053       0.35078110      -1.45559224
N        4.03982661       0.70641501      -2.87617721
C        4.64961592      -0.53136935      -2.76785941
O        4.23756773      -1.47236929      -2.09983541
C        5.87779961      -0.62075559      -3.53758798
C        6.78981653      -1.65053714      -3.67382566
C        7.80141343      -1.18717004      -4.54987126
C        7.44782306       0.09606592      -4.89782962
Br       8.41716073       1.20347112      -6.04352933
O        6.28512082       0.45236883      -4.28873478
H       -0.37898054       2.62225684      -0.65649148
H        1.04724682       4.04794375      -2.09281381
H        3.08843717       3.13196336      -3.11641854
H        2.28583674      -0.68763295      -1.25894203
H        4.53483415       1.37226023      -3.45993930
H        6.72062248      -2.61655620      -3.19060668
H        8.67745621      -1.72604825      -4.88389313
C       -0.88295009      -0.88295009      -0.88295009
C       -0.62616355      -2.24976137      -0.95900791
C       -1.42699531      -3.05259268      -1.76679233
C       -2.47901143      -2.48438997      -2.49037430
C       -2.74533786      -1.11002089      -2.41118314
C       -1.93538326      -0.31015649      -1.60217412
N       -3.83163161      -0.62551529      -3.16527193
C       -4.33217202       0.66382198      -3.21775594
O       -3.89307939       1.62420588      -2.59616033
C       -5.47793894       0.78504794      -4.10174100
C       -6.27690376       1.87094356      -4.40714484
C       -7.24956952       1.41575743      -5.33030256
C       -6.98727573       0.08085053      -5.53529339
Br      -7.95446915      -1.04166906      -6.66802296
O       -5.91748493      -0.31446018      -4.79427932
H        0.19050553      -2.69397331      -0.39630000
H       -1.23482412      -4.12059099      -1.83258927
H       -3.09008141      -3.13419337      -3.11254429
H       -2.09918978       0.75877795      -1.51673399
H       -4.33486291      -1.29817917      -3.73399160
H       -6.16017829       2.86799416      -4.00248883
H       -8.04128081       1.99338887      -5.78740914
C       -0.88295009       0.88295009       0.88295009
C       -2.17442151       0.46525883       1.19525250
C       -2.97982550       1.27158513       1.99496969
C       -2.48832036       2.48740563       2.47804972
C       -1.18634948       2.90835422       2.17183819
C       -0.38555938       2.09642258       1.36573190
N       -0.77058463       4.14145883       2.71037537
C        0.46874633       4.74879863       2.60605367
O        1.43575444       4.29555855       2.00522974
C        0.53201228       6.01835178       3.30829250
C        1.57409968       6.91087862       3.47632610
C        1.07185159       7.98405546       4.25191079
C       -0.24591517       7.68515516       4.51064826
Br      -1.41569318       8.75327925       5.49518875
O       -0.58482081       6.49489904       3.94650457
H       -2.55828139      -0.48030522       0.82179162
H       -3.98919662       0.95420277       2.24460500
H       -3.13761357       3.09738599       3.10181951
H        0.62475831       2.38541796       1.09648616
H       -1.44791532       4.65465713       3.26446123
H        2.57407919       6.78789781       3.08085435
H        1.60789329       8.86459072       4.57860366
C        0.88295009      -0.88295009       0.88295009
C        2.21066889      -0.52314271       1.10112124
C        3.01570011      -1.32977194       1.90090827
C        2.48778586      -2.48796064       2.47802922
C        1.14977079      -2.85009120       2.26667989
C        0.34927760      -2.03847953       1.45995673
N        0.69958706      -4.02683371       2.89599807
C       -0.57452801      -4.56748936       2.89314463
O       -1.54834871      -4.09298657       2.32039599
C       -0.66594967      -5.79179984       3.66878183
C       -1.74328088      -6.61333458       3.94305134
C       -1.25619521      -7.67006550       4.75024436
C        0.08830737      -7.43305932       4.92035190
Br       1.25302374      -8.51145435       5.89968309
O        0.45810848      -6.29604279       4.27207316
H        2.62296704       0.37762910       0.65442985
H        4.05322867      -1.05730348       2.07747223
H        3.13774223      -3.09943377       3.09964307
H       -0.68878286      -2.28364858       1.26228009
H        1.37873835      -4.54716137       3.44113396
H       -2.75605823      -6.45516422       3.59556697
H       -1.81937030      -8.49987378       5.15479760
