110
Properties=species:S:1:pos:R:3 pbc="F F F"
C        1.79123907       1.79123907      -1.79123907
C        1.28607974       2.98043795      -2.30839801
C        2.09805212       3.78553125      -3.11364898
C        3.41554502       3.40763984      -3.40736606
C        3.90693183       2.21059541      -2.88137068
C        3.09752020       1.40317649      -2.07369412
N        4.16674238       4.27851836      -4.21916082
C        5.47104325       4.13050122      -4.65779858
O        6.19801162       3.17152239      -4.42374352
C        5.92660431       5.25862746      -5.45142999
C        7.14572913       5.51152775      -6.05178028
C        7.03420061       6.77136045      -6.68874323
C        5.75423827       7.21203199      -6.44332215
Br       5.04135293       8.82736394      -7.04417797
O        5.07207769       6.30408619      -5.69473522
H        0.26718049       3.29046084      -2.09243940
H        1.68365304       4.71070979      -3.50644619
H        4.92032453       1.87263910      -3.07472611
H        3.50186352       0.47703466      -1.67342218
H        3.71102861       5.13043205      -4.52529387
H        8.00673621       4.85638453      -6.02112663
H        7.79588112       7.29040080      -7.25428151
C       -1.79123907      -1.79123907      -1.79123907
C       -1.27762414      -2.96703270      -2.33025886
C       -2.08959742      -3.77221342      -3.13542150
C       -3.41554014      -3.40774615      -3.40726463
C       -3.91537066      -2.22404262      -2.85948465
C       -3.10595601      -1.41660110      -2.05183370
N       -4.16598922      -4.27782686      -4.22060547
C       -5.47767584      -4.14116375      -4.64050345
O       -6.21378886      -3.19480199      -4.38468667
C       -5.92899979      -5.26483827      -5.44282370
C       -7.15248116      -5.52584241      -6.03071360
C       -7.03308247      -6.77583859      -6.68538322
C       -5.74448620      -7.20294360      -6.46216262
Br      -5.01879841      -8.80102381      -7.09307261
O       -5.06436005      -6.29588814      -5.71065092
H       -0.25210746      -3.26652726      -2.13144601
H       -1.66849948      -4.68680723      -3.54550231
H       -4.93544635      -1.89683783      -3.03540556
H       -3.51691504      -0.50100934      -1.63439597
H       -3.70339702      -5.11974325      -4.54361426
H       -8.02135530      -4.88239757      -5.98049450
H       -7.79532709      -7.29743711      -7.24779923
C       -1.79123907       1.79123907       1.79123907
C       -3.10658903       1.41779923       2.05052743
C       -3.90949356       2.22748623       2.86025256
C       -3.40482787       3.41260892       3.41311413
C       -2.08296055       3.77366307       3.14227431
C       -1.27603743       2.96476911       2.33358426
N       -4.27704268       4.16520157       4.22217730
C       -4.02781886       5.36382841       4.86769577
O       -2.97998009       5.99801448       4.81528295
C       -5.16184683       5.82555171       5.64926321
C       -5.31946876       6.94519250       6.44437591
C       -6.62992110       6.88651801       6.97786517
C       -7.19633211       5.73784539       6.47541491
Br      -8.92564375       5.14397089       6.84328019
O       -6.31710034       5.08566629       5.66813247
H       -3.51628156       0.50296912       1.63083006
H       -4.93371758       1.91650457       3.05058687
H       -1.64133986       4.67881555       3.54753434
H       -0.24963250       3.26442365       2.13826421
H       -5.20861980       3.79266763       4.36546709
H       -4.56652926       7.70408650       6.61363160
H       -7.09845620       7.59546394       7.64664329
C        1.79123907      -1.79123907       1.79123907
C        3.10573716      -1.41638363       2.05279490
C        3.90864165      -2.22607977       2.86251093
C        3.40482720      -3.41262004       3.41310368
C        2.08381063      -3.77508304       3.14000426
C        1.27688723      -2.96618672       2.33131686
N        4.27696605      -4.16512807       4.22232744
C        4.02848685      -5.36495424       4.86590195
O        2.98157221      -6.00047448       4.81123084
C        5.16208453      -5.82620528       5.64837195
C        5.32014356      -6.94670070       6.44219291
C        6.62979902      -6.88698495       6.97752031
C        7.19534000      -5.73687958       6.47737282
Br       8.92335725      -5.14118039       6.84835720
O        6.31631672      -5.08479673       5.66978566
H        3.51476306      -0.50044175       1.63487593
H        4.93219073      -1.91398033       3.05463797
H        1.64286299      -4.68137074       3.54345602
H        0.25114872      -3.26695529       2.13421635
H        5.20784882      -3.79153754       4.36736817
H        4.56799780      -7.70683080       6.60941876
H        7.09838844      -7.59619945       7.64597555
C       -0.00445707       0.01189536      -1.78238275
H       -0.66409135       0.67374010      -2.43557963
H        0.65740317      -0.63156657      -2.45157240
C       -0.90989263      -0.90692880      -0.91072765
C        0.90977584       0.90977584      -0.90977584
C       -0.00465871       1.77757030       0.00794375
H       -0.66225468       2.44313916      -0.64384735
H        0.64322798       2.43503045       0.67728295
C       -1.78241447       0.00034974      -0.00472694
H       -2.45427497      -0.65498947       0.64260836
H       -2.43311707       0.67328779      -0.65473579
C       -0.91132561       0.90220522       0.91563759
C       -0.01476271      -0.02253852       1.78660255
H       -0.67934791      -0.69751639       2.42135241
H        0.63392994       0.61504881       2.47327442
C        0.01484550      -1.77751727      -0.01636693
H        0.67870853      -2.42144646      -0.68295456
H       -0.62264859      -2.45592969       0.64226336
C        1.78714474       0.01002794       0.00389507
H        2.44202412       0.67113390       0.66197326
H        2.45385902      -0.65136977      -0.64189061
C        0.91606151      -0.90478549       0.90901405
