97
Properties=species:S:1:pos:R:3 pbc="F F F"
C        0.00000000       0.00000000       0.00000000
C        0.88133505       0.88133505      -0.88133505
C        0.37617571       2.07053392      -1.39849398
C        1.18814810       2.87562723      -2.20374495
C        2.50564100       2.49773582      -2.49746203
C        2.99702781       1.30069139      -1.97146665
C        2.18761617       0.49327247      -1.16379009
N        3.25683836       3.36861434      -3.30925679
C        4.56113922       3.22059719      -3.74789455
O        5.28810759       2.26161837      -3.51383949
C        5.01670028       4.34872343      -4.54152596
C        6.23582511       4.60162373      -5.14187626
C        6.12429658       5.86145643      -5.77883920
C        4.84433425       6.30212796      -5.53341813
O        4.16217367       5.39418217      -4.78483120
H       -0.64272353       2.38055682      -1.18253537
H        0.77374901       3.80080577      -2.59654217
H        4.01042051       0.96273508      -2.16482209
H        2.59195949      -0.43286937      -0.76351816
H        2.80112458       4.22052803      -3.61538985
H        7.09683218       3.94648050      -5.11122261
H        6.88597710       6.38049677      -6.34437749
C        4.29392685       7.54930000      -5.99732932
C        3.83296065       8.59380659      -6.38585494
Br       3.08761729      10.28268539      -7.01406801
C       -0.88133505      -0.88133505      -0.88133505
C       -0.31722043      -1.93783464      -1.59014855
C       -1.12912084      -2.74374400      -2.39465543
C       -2.50550320      -2.49872267      -2.49661298
C       -3.05580376      -1.43376664      -1.77961545
C       -2.24638730      -0.62613419      -0.97215724
N       -3.25112976      -3.36148070      -3.32209902
C       -4.60724976      -3.32606155      -3.59631967
O       -5.39968901      -2.49305922      -3.17081723
C       -5.03120642      -4.40881946      -4.46692380
C       -6.27961721      -4.74125297      -4.95845492
C       -6.11081226      -5.90219781      -5.75158213
C       -4.77054068      -6.20850384      -5.70083582
O       -4.10468970      -5.31071182      -4.92578552
H        0.74778382      -2.14365843      -1.52449405
H       -0.66798279      -3.56412335      -2.93899081
H       -4.11565008      -1.20215041      -1.82017719
H       -2.69680141       0.19560721      -0.42141408
H       -2.74663142      -4.11390966      -3.77650138
H       -7.19618023      -4.20235689      -4.75599817
H       -6.87491176      -6.44560658      -6.29033302
C       -4.14907548      -7.32247308      -6.36900761
C       -3.62859838      -8.25542232      -6.92860148
Br      -2.78703092      -9.76392233      -7.83341744
C       -0.88133505       0.88133505       0.88133505
C       -2.14572666       0.43976870       1.25970825
C       -2.94866188       1.24991592       2.06894248
C       -2.49492793       2.50326627       2.50264465
C       -1.22393391       2.93211147       2.11314047
C       -0.41698737       2.12309934       1.30459202
N       -3.36274727       3.25187638       3.32008583
C       -3.15792999       4.50813950       3.86356148
O       -2.16464987       5.20609813       3.69281745
C       -4.26708801       4.94765851       4.69220316
C       -4.45131660       6.10870540       5.41930310
C       -5.71511425       6.00053016       6.04894780
C       -6.22952781       4.78293390       5.66741863
O       -5.36187097       4.13484701       4.84446906
H       -2.51552781      -0.52857410       0.93341496
H       -3.93252508       0.88514839       2.35342347
H       -0.82263475       3.89193303       2.42340990
H        0.56952931       2.47638166       1.01575593
H       -4.25313754       2.82870353       3.55520139
H       -3.74556130       6.92690817       5.48206582
H       -6.18753759       6.72278514       6.70052863
C       -7.50582206       4.25715612       6.07757799
C       -8.57471850       3.81681722       6.42108645
Br     -10.30303364       3.10482647       6.97651057
C        0.88133505      -0.88133505       0.88133505
C        2.13684753      -0.43047609       1.27788000
C        2.93979323      -1.24068993       2.08703711
C        2.49493546      -2.50334794       2.50255545
C        1.23280304      -2.94143796       2.09494485
C        0.42585135      -2.13240892       1.28641847
N        3.36201215      -3.25143221       3.32126512
C        3.16491117      -4.51554115       3.84917865
O        2.18102506      -5.22211439       3.66042599
C        4.26987125      -4.95213279       4.68494564
C        4.45880744      -6.11888110       5.40163655
C        5.71463373      -6.00407196       6.04588652
C        6.21999436      -4.77707979       5.68280619
O        5.35421475      -4.12944666       4.85752563
H        2.49969565       0.54516763       0.96584064
H        3.91662596      -0.86858748       2.38588350
H        0.83853898      -3.90872350       2.39071520
H       -0.55371139      -2.49300894       0.98331072
H        4.24528016      -2.82139268       3.57036961
H        3.76122739      -6.94513911       5.44816878
H        6.18783406      -6.72821674       6.69480056
C        7.48616981      -4.24223318       6.11215317
C        8.54659176      -3.79429915       6.47173127
Br      10.26120435      -3.07002770       7.05313864
