130
Properties=species:S:1:pos:R:3 pbc="F F F"
C        1.79209202       1.79209202      -1.79209202
C        2.96597594       2.33442835      -1.26981913
C        3.76591661       3.15148478      -2.06821767
C        3.39463748       3.41369749      -3.38809084
C        2.22517759       2.85112907      -3.91838145
C        1.41104056       2.04762572      -3.10973107
C        1.87546022       3.14925138      -5.33759428
O        2.19844024       4.23971535      -5.79132560
N        1.25511187       2.11763542      -6.00174016
C        0.82826196       2.10958966      -7.30541224
S        0.87162755       3.47733972      -8.31174207
C        0.21484705       2.55143094      -9.60550814
C       -0.08129475       2.94611591     -10.92099166
C       -0.60746546       1.98267116     -11.78576760
Br      -1.01070310       2.46714233     -13.57050681
C       -0.83844996       0.67693265     -11.36447622
C       -0.54315595       0.30115215     -10.04937630
C       -0.00603627       1.24854486      -9.15406530
N        0.33885474       1.01391302      -7.83411313
H        3.26067627       2.13503964      -0.24235263
H        4.67685371       3.58661274      -1.66340494
H        4.02126783       4.05612943      -4.00541752
H        0.47513427       1.64358461      -3.48415111
H        1.15613941       1.21411488      -5.56149802
H        0.10002415       3.96532136     -11.24751571
H       -1.24726676      -0.06299160     -12.04844973
H       -0.71915913      -0.71569563      -9.71198591
C       -1.79209202      -1.79209202      -1.79209202
C       -2.42080816      -1.24107882      -2.90833643
C       -3.23789654      -2.04038136      -3.70734115
C       -3.41397429      -3.38911024      -3.39334129
C       -2.76491149      -3.94683529      -2.28294134
C       -1.96110610      -3.13872958      -1.46856167
C       -2.97297632      -5.39545343      -1.99387612
O       -4.05488889      -5.88919437      -2.28539793
N       -1.87828743      -6.03459290      -1.46160712
C       -1.78270561      -7.35572886      -1.10482938
S       -3.09887188      -8.42915856      -1.13267891
C       -2.07624901      -9.70363804      -0.59189908
C       -2.38862012     -11.05120131      -0.34599138
C       -1.35685400     -11.88932314       0.08520384
Br      -1.72970624     -13.71497647       0.41773667
C       -0.06345055     -11.41202286       0.27251450
C        0.23012961     -10.06587851       0.02837640
C       -0.78772754      -9.19591116      -0.41293519
N       -0.63777453      -7.84987167      -0.69923470
H       -2.28875787      -0.19111476      -3.15819590
H       -3.73999429      -1.61401533      -4.57286177
H       -4.05682930      -4.00729226      -4.01869322
H       -1.49021849      -3.53766460      -0.57498690
H       -0.99393052      -5.55294665      -1.38487514
H       -3.39836686     -11.42139865      -0.49309570
H        0.73018279     -12.07570951       0.60733535
H        1.23670267      -9.68470191       0.17086809
C       -1.79209202       1.79209202       1.79209202
C       -2.73937285       2.62856550       1.20228506
C       -3.53625258       3.44531793       2.00404854
C       -3.39029344       3.41413835       3.39199402
C       -2.45211186       2.55764925       3.98492701
C       -1.63732139       1.75291694       3.17815902
C       -2.34046363       2.54936349       5.47247876
O       -2.56490715       3.59393458       6.07063946
N       -2.03528028       1.32373234       6.01547482
C       -1.87602352       1.02287542       7.34436491
S       -1.89216660       2.19243557       8.57610717
C       -1.65661851       0.96042835       9.75473927
C       -1.56114014       1.07270356      11.15196911
C       -1.37495015      -0.10109630      11.88711945
Br      -1.25223459       0.00159004      13.77312140
C       -1.28055615      -1.34140497      11.26380773
C       -1.37223748      -1.43561248       9.87074750
C       -1.56569907      -0.27029751       9.10117234
N       -1.68165599      -0.21752630       7.72275120
H       -2.85772376       2.65851681       0.12182796
H       -4.26913303       4.10815982       1.54957855
H       -4.01257161       4.05756135       4.01268182
H       -0.86937460       1.12022646       3.61326893
H       -2.00005095       0.50127677       5.43042460
H       -1.63536007       2.04140931      11.63609184
H       -1.13683671      -2.24699533      11.84834999
H       -1.30067639      -2.39925345       9.37570820
C        1.79209202      -1.79209202       1.79209202
C        1.23174719      -2.88388230       2.45459393
C        2.03142136      -3.68252888       3.27166882
C        3.38953616      -3.39283869       3.41405096
C        3.95605406      -2.30743828       2.73119577
C        3.14816312      -1.49297460       1.92725963
C        5.41417205      -2.04408156       2.90405226
O        5.92407759      -2.32383952       3.98156407
N        6.04126435      -1.54722257       1.78600052
C        7.36707472      -1.21967708       1.65651205
S        8.46655572      -1.24307028       2.95108334
C        9.73037777      -0.74931330       1.89209506
C       11.08875769      -0.52491774       2.17213739
C       11.91400751      -0.13191376       1.11505203
Br      13.75326767       0.17046104       1.44413941
C       11.41408896       0.03907816      -0.17205191
C       10.05754932      -0.18319920      -0.43337603
C        9.19997747      -0.58594087       0.61065556
N        7.84564597      -0.84747122       0.49376370
H        0.17447053      -3.11471363       2.34888438
H        1.59811947      -4.52881214       3.79993978
H        4.00808096      -4.01769066       4.05704315
H        3.55525206      -0.61745622       1.43016171
H        5.54318317      -1.47843472       0.91013443
H       11.47659630      -0.65923194       3.17703298
H       12.06792997       0.34413036      -0.98560825
H        9.65870832      -0.05320608      -1.43478326
C       -0.00445707       0.01189536      -1.78238275
H       -0.66409135       0.67374010      -2.43557963
H        0.65740317      -0.63156657      -2.45157240
C       -0.90989263      -0.90692880      -0.91072765
C        0.90977584       0.90977584      -0.90977584
C       -0.00465871       1.77757030       0.00794375
H       -0.66225468       2.44313916      -0.64384735
H        0.64322798       2.43503045       0.67728295
C       -1.78241447       0.00034974      -0.00472694
H       -2.45427497      -0.65498947       0.64260836
H       -2.43311707       0.67328779      -0.65473579
C       -0.91132561       0.90220522       0.91563759
C       -0.01476271      -0.02253852       1.78660255
H       -0.67934791      -0.69751639       2.42135241
H        0.63392994       0.61504881       2.47327442
C        0.01484550      -1.77751727      -0.01636693
H        0.67870853      -2.42144646      -0.68295456
H       -0.62264859      -2.45592969       0.64226336
C        1.78714474       0.01002794       0.00389507
H        2.44202412       0.67113390       0.66197326
H        2.45385902      -0.65136977      -0.64189061
C        0.91606151      -0.90478549       0.90901405
