126
Properties=species:S:1:pos:R:3 pbc="F F F"
C        1.77704203       1.77704203      -1.77704203
C        1.73782063       1.81895462      -3.15158405
C        2.72294683       2.75552354      -3.54578242
C        3.30512610       3.23306440      -2.38650801
O        2.71909397       2.63576830      -1.30032029
C        4.36765721       4.20235114      -2.18935771
O        4.94910341       4.71193386      -3.14016416
N        4.60351221       4.46655886      -0.85948944
C        5.55088454       5.35602538      -0.44442502
S        5.58939972       5.60471954       1.24136116
C        6.85858145       6.75570082       1.03169564
C        7.52875859       7.52871893       1.99490438
C        8.53469177       8.39264385       1.55094662
C        8.87244531       8.48509603       0.20447610
C        8.19538355       7.70962056      -0.74231873
C        7.16953980       6.83620923      -0.32864535
N        6.41175401       6.03069176      -1.15607658
H        1.08433283       1.24548518      -3.79443370
H        2.98962495       3.05835243      -4.55040247
H        4.03364222       4.01288759      -0.16029752
H        7.26714170       7.45625581       3.04569155
H        9.65883969       9.15871003      -0.12766213
H        8.44645063       7.77457907      -1.79702241
C        9.23458057       9.20618431       2.51110681
C        9.82073744       9.88752445       3.31524096
Br      10.76850353      10.98919382       4.61545788
C       -1.77704203      -1.77704203      -1.77704203
C       -2.42495270      -2.91852915      -1.36487744
C       -3.11039661      -3.41437090      -2.49948528
C       -2.84217432      -2.54352758      -3.53899662
O       -2.02790493      -1.53475119      -3.09252644
C       -3.27461563      -2.56008511      -4.92466532
O       -3.95631955      -3.47688711      -5.36799477
N       -2.85016246      -1.45417386      -5.62522419
C       -3.15262438      -1.25784400      -6.94086657
S       -2.61637600       0.23299936      -7.56938147
C       -3.32171440      -0.16790515      -9.09296708
C       -3.36544860       0.58283265     -10.27995720
C       -4.00476092       0.01452794     -11.38615601
C       -4.57454495      -1.25324470     -11.32527559
C       -4.52353124      -1.98770253     -10.13608907
C       -3.89512970      -1.43922850      -9.00003619
N       -3.78966811      -2.04541064      -7.76344360
H       -2.40631392      -3.34605678      -0.37188102
H       -3.73045733      -4.29913402      -2.56878850
H       -2.32272939      -0.74058860      -5.14350935
H       -2.91995355       1.57125378     -10.32900620
H       -5.06630234      -1.68531509     -12.19359442
H       -4.96739414      -2.97701557     -10.07364241
C       -4.07575879       0.76138690     -12.61528618
C       -4.13521949       1.38688128     -13.64468271
Br      -4.23136243       2.39825279     -15.30912982
C       -1.77704203       1.77704203       1.77704203
C       -1.78041605       3.15277669       1.77516656
C       -2.73310456       3.54606682       2.74508140
C       -3.25812027       2.38519189       3.28138636
O       -2.67444490       1.29907016       2.68166751
C       -4.26176134       2.18639271       4.31121201
O       -4.76134637       3.13490712       4.90494794
N       -4.56855991       0.85851080       4.50248980
C       -5.49515040       0.44286451       5.41332003
S       -5.79061270      -1.23572736       5.39787277
C       -6.97051966      -1.02856146       6.64062844
C       -7.78791336      -1.98764826       7.26230805
C       -8.66724111      -1.54723535       8.25638323
C       -8.73242715      -0.20839649       8.62903459
C       -7.91283207       0.73440752       8.00008326
C       -7.02264386       0.32453239       6.98721815
N       -6.17401976       1.14942022       6.27508237
H       -1.17160474       3.79687724       1.15576974
H       -3.01582220       4.55113597       3.03142168
H       -4.11831970       0.16266842       3.92583922
H       -7.73678402      -3.03254194       6.97346389
H       -9.41849005       0.12093253       9.40578926
H       -7.95606076       1.78329190       8.27869946
C       -9.52587458      -2.50295081       8.90673430
C      -10.24498011      -3.30336251       9.45140333
Br     -11.40771293      -4.59756054      10.33208708
C        1.77704203      -1.77704203       1.77704203
C        2.27266088      -1.42462769       3.01107073
C        3.03821559      -2.52780481       3.45823238
C        2.96286392      -3.49164520       2.47018939
O        2.18287607      -3.03172499       1.44058150
C        3.55454298      -4.81483848       2.38998460
O        4.30102663      -5.23275223       3.26742257
N        3.16592703      -5.50133697       1.26229652
C        3.59236125      -6.76833999       0.99063371
S        2.89449726      -7.46026324      -0.40200239
C        3.77846097      -8.91376691      -0.10964125
C        3.77725911     -10.11838727      -0.83307322
C        4.60043666     -11.15244830      -0.37649596
C        5.40224066     -11.00053705       0.75028754
C        5.39160032      -9.79551043       1.46021210
C        4.56545019      -8.73704232       1.03190188
N        4.44508374      -7.50629752       1.64714110
H        2.10806088      -0.48889776       3.52729308
H        3.58574977      -2.62556314       4.38706695
H        2.51351862      -5.06865501       0.62465371
H        3.15334201     -10.23743845      -1.71307450
H        6.04036399     -11.81143060       1.09341726
H        6.00983805      -9.66464946       2.34356461
C        4.61550383     -12.40352235      -1.08936811
C        4.62812259     -13.45129687      -1.68639854
Br       4.64852605     -15.14545965      -2.65174624
C       -0.00445707       0.01189536      -1.78238275
H       -0.66409135       0.67374010      -2.43557963
H        0.65740317      -0.63156657      -2.45157240
C       -0.90989263      -0.90692880      -0.91072765
C        0.90977584       0.90977584      -0.90977584
C       -0.00465871       1.77757030       0.00794375
H       -0.66225468       2.44313916      -0.64384735
H        0.64322798       2.43503045       0.67728295
C       -1.78241447       0.00034974      -0.00472694
H       -2.45427497      -0.65498947       0.64260836
H       -2.43311707       0.67328779      -0.65473579
C       -0.91132561       0.90220522       0.91563759
C       -0.01476271      -0.02253852       1.78660255
H       -0.67934791      -0.69751639       2.42135241
H        0.63392994       0.61504881       2.47327442
C        0.01484550      -1.77751727      -0.01636693
H        0.67870853      -2.42144646      -0.68295456
H       -0.62264859      -2.45592969       0.64226336
C        1.78714474       0.01002794       0.00389507
H        2.44202412       0.67113390       0.66197326
H        2.45385902      -0.65136977      -0.64189061
C        0.91606151      -0.90478549       0.90901405
