118
Properties=species:S:1:pos:R:3 pbc="F F F"
C        1.77704203       1.77704203      -1.77704203
C        1.73782063       1.81895462      -3.15158405
C        2.72294683       2.75552354      -3.54578242
C        3.30512610       3.23306440      -2.38650801
O        2.71909397       2.63576830      -1.30032029
C        4.36765721       4.20235114      -2.18935771
O        4.94910341       4.71193386      -3.14016416
N        4.60351221       4.46655886      -0.85948944
C        5.55088454       5.35602538      -0.44442502
S        5.58939972       5.60471954       1.24136116
C        6.85858145       6.75570082       1.03169564
C        7.52875859       7.52871893       1.99490438
C        8.53469177       8.39264385       1.55094662
Br       9.45471098       9.46206066       2.81309829
C        8.87244531       8.48509603       0.20447610
C        8.19538355       7.70962056      -0.74231873
C        7.16953980       6.83620923      -0.32864535
N        6.41175401       6.03069176      -1.15607658
H        1.08433283       1.24548518      -3.79443370
H        2.98962495       3.05835243      -4.55040247
H        4.03364222       4.01288759      -0.16029752
H        7.26714170       7.45625581       3.04569155
H        9.65883969       9.15871003      -0.12766213
H        8.44645063       7.77457907      -1.79702241
C       -1.77704203      -1.77704203      -1.77704203
C       -3.15160453      -1.73815855      -1.81859621
C       -3.54579062      -2.72314722      -2.75531495
C       -2.38648980      -3.30491144      -3.23329728
O       -1.30029926      -2.71875534      -2.63612797
C       -2.18931593      -4.36714676      -4.20290337
O       -3.14010414      -4.94870484      -4.71239245
N       -0.85945495      -4.60259756      -4.46750800
C       -0.44437594      -5.54963909      -5.35731991
S        1.24135684      -5.58766376      -5.60645118
C        1.03172122      -6.85660680      -6.75770105
C        1.99490378      -7.52634369      -7.53113324
C        1.55098199      -8.53217036      -8.39520062
Br       2.81309563      -9.45159837      -9.46517062
C        0.20457373      -8.87024188      -8.48739710
C       -0.74219603      -8.19361683      -7.71150999
C       -0.32856127      -7.16788966      -6.83794346
N       -1.15598030      -6.41051793      -6.03202413
H       -3.79447439      -1.08497918      -1.24479815
H       -4.55041980      -2.99000330      -3.05795676
H       -0.16029251      -4.03266532      -4.01386951
H        3.04564293      -7.26447874      -7.45887016
H       -0.12753592      -9.65654965      -9.16112627
H       -1.79685248      -8.44493486      -7.77626478
C       -1.77704203       1.77704203       1.77704203
C       -1.35845263       2.44587449       2.90403218
C       -2.49552084       3.12271907       3.40601287
C       -3.54287396       2.82877234       2.55305221
O       -3.09894476       2.00692793       1.54930987
C       -4.93394522       3.24278041       2.58264044
O       -5.37416585       3.93087563       3.49615994
N       -5.64343624       2.79398134       1.49214293
C       -6.96558190       3.07607938       1.30967367
S       -7.60668401       2.51124002      -0.16516593
C       -9.13420243       3.20146970       0.24691450
C      -10.33163670       3.21907746      -0.48814101
C      -11.43870250       3.85116460       0.08652189
Br     -13.06855880       3.90946910      -0.87435455
C      -11.36857819       4.43889082       1.34559624
C      -10.16906728       4.41381307       2.06444250
C       -9.03203523       3.79330452       1.50905464
N       -7.78610687       3.71268111       2.09973437
H       -0.35965146       2.44636383       3.31823643
H       -2.56137524       3.75376197       4.28324265
H       -5.16420905       2.26340536       0.77921293
H      -10.38787528       2.75957275      -1.46974206
H      -12.23762869       4.92478798       1.78279518
H      -10.09939933       4.87187769       3.04677510
C        1.77704203      -1.77704203       1.77704203
C        2.96544419      -2.35235903       1.39055607
C        3.43083281      -3.08492438       2.50849560
C        2.49872112      -2.91150530       3.51447210
O        1.48625999      -2.10293747       3.06598511
C        2.45796246      -3.43263445       4.86876916
O        3.31811612      -4.20199279       5.28109253
N        1.38761849      -2.95314648       5.58879555
C        1.16109481      -3.30232860       6.88791154
S       -0.15807455      -2.50044159       7.61039107
C        0.16517222      -3.32594319       9.09147123
C       -0.49421472      -3.22832624      10.32846163
C       -0.02582706      -4.02224455      11.37997151
Br      -0.87665838      -3.91297727      13.06735446
C        1.05092644      -4.88760077      11.21453803
C        1.69740022      -4.97272860       9.97719403
C        1.25609445      -4.17850096       8.89979898
N        1.81217897      -4.15055758       7.63578580
H        3.44015382      -2.26071350       0.42338441
H        4.33549441      -3.67419533       2.58869012
H        0.76127464      -2.29072098       5.15483172
H       -1.33523397      -2.55474986      10.45819007
H        1.40371848      -5.50202897      12.03946439
H        2.54143150      -5.64139227       9.83522836
C       -0.00445707       0.01189536      -1.78238275
H       -0.66409135       0.67374010      -2.43557963
H        0.65740317      -0.63156657      -2.45157240
C       -0.90989263      -0.90692880      -0.91072765
C        0.90977584       0.90977584      -0.90977584
C       -0.00465871       1.77757030       0.00794375
H       -0.66225468       2.44313916      -0.64384735
H        0.64322798       2.43503045       0.67728295
C       -1.78241447       0.00034974      -0.00472694
H       -2.45427497      -0.65498947       0.64260836
H       -2.43311707       0.67328779      -0.65473579
C       -0.91132561       0.90220522       0.91563759
C       -0.01476271      -0.02253852       1.78660255
H       -0.67934791      -0.69751639       2.42135241
H        0.63392994       0.61504881       2.47327442
C        0.01484550      -1.77751727      -0.01636693
H        0.67870853      -2.42144646      -0.68295456
H       -0.62264859      -2.45592969       0.64226336
C        1.78714474       0.01002794       0.00389507
H        2.44202412       0.67113390       0.66197326
H        2.45385902      -0.65136977      -0.64189061
C        0.91606151      -0.90478549       0.90901405
