130
Properties=species:S:1:pos:R:3 pbc="F F F"
C        1.79177160       1.79177160      -1.79177160
C        1.22067750       2.84531758      -2.50387793
C        2.02568722       3.66062179      -3.29971632
C        3.39909888       3.41834475      -3.38703600
C        3.97012378       2.34781175      -2.68287877
C        3.15985378       1.53975133      -1.87362694
C        5.43329839       2.05992495      -2.72659948
O        5.94868534       1.46712102      -1.78427021
N        6.09110118       2.47191788      -3.88070487
N        7.41651187       2.24621920      -4.16585402
C        8.26585213       2.20959336      -3.18511480
C        9.65996034       1.93667468      -3.44500141
C       10.29751423       1.71374977      -4.65153865
C       11.69662324       1.47894387      -4.48938926
C       12.05547378       1.53115139      -3.16639974
S       10.75633795       1.86135703      -2.13117180
H        0.15388129       3.04502251      -2.43655567
H        1.58338772       4.49356375      -3.84195416
H        4.00730557       4.09393240      -3.98291551
H        3.60133735       0.72004007      -1.30986414
H        5.53445983       2.65541433      -4.70970203
H        7.98310843       2.41104723      -2.13819555
H        9.78146830       1.71982015      -5.60491411
H       12.38476294       1.28268945      -5.30233111
C       13.40187896       1.32738558      -2.69813425
C       14.52949331       1.15673171      -2.30596190
Br      16.35275033       0.88079885      -1.67185239
C       -1.79177160      -1.79177160      -1.79177160
C       -2.70493171      -2.66382187      -1.20111943
C       -3.52101203      -3.46085324      -2.00416006
C       -3.41930637      -3.38921357      -3.39595969
C       -2.48856284      -2.52322506      -3.98902641
C       -1.68038148      -1.71419831      -3.17865227
C       -2.35549034      -2.39493342      -5.46939906
O       -1.91451506      -1.34954610      -5.93601541
N       -2.72225492      -3.51767640      -6.20379262
N       -2.61279192      -3.64820287      -7.56759030
C       -2.76153628      -2.59196711      -8.30705690
C       -2.61510120      -2.68584405      -9.74069119
C       -2.34632761      -3.79471501     -10.52176003
C       -2.27877206      -3.47451714     -11.91166717
C       -2.49606910      -2.13627376     -12.12068205
S       -2.78396598      -1.27206521     -10.69283559
H       -2.79528003      -2.72119406      -0.11898539
H       -4.24594465      -4.12887256      -1.54408842
H       -4.09538174      -3.99240664      -3.99636510
H       -0.97052748      -1.02636682      -3.63434727
H       -2.76467970      -4.41122921      -5.72366727
H       -3.03153322      -1.60461146      -7.89620652
H       -2.20552241      -4.78852659     -10.11215356
H       -2.07967778      -4.19185024     -12.69825548
C       -2.48308053      -1.52151935     -13.42279891
C       -2.47220261      -1.00666254     -14.51332178
Br      -2.45461392      -0.17418261     -16.27660503
C       -1.79177160       1.79177160       1.79177160
C       -2.41613491       1.24295887       2.91077923
C       -3.21146637       2.04900549       3.72555347
C       -3.38607387       3.40077425       3.41763152
C       -2.77051274       3.94817892       2.28212266
C       -1.96114363       3.13797685       1.47411157
C       -2.90890737       5.38922277       1.92169268
O       -2.02807995       5.91956270       1.25243392
N       -4.07433110       6.00791058       2.36148225
N       -4.44272800       7.30247832       2.08337877
C       -3.51304193       8.19818252       1.94933584
C       -3.86244354       9.55998247       1.61921042
C       -5.11191367      10.12109576       1.42979322
C       -5.03877567      11.51181165       1.11436904
C       -3.73642830      11.94098502       1.07561159
S       -2.61610343      10.71715467       1.41560868
H       -2.28041431       0.19357656       3.16146861
H       -3.68489573       1.62537038       4.60863952
H       -3.97850010       4.01329833       4.09235506
H       -1.46552084       3.56263511       0.60308562
H       -4.86108434       5.41995066       2.61854119
H       -2.44322270       7.98143801       2.10769050
H       -6.03409438       9.55748921       1.51461896
H       -5.89714763      12.14519955       0.92743632
C       -3.35355727      13.29668860       0.77715293
C       -3.03290278      14.43209035       0.52719380
Br      -2.51443159      16.26793895       0.12303103
C        1.79177160      -1.79177160       1.79177160
C        3.17238840      -1.59926524       1.79821936
C        3.97909130      -2.39431885       2.61261518
C        3.40540015      -3.38411538       3.41496410
C        2.01758016      -3.58787742       3.39535672
C        1.20951606      -2.77760316       2.58611282
C        1.35471558      -4.61701150       4.24809574
O        0.17951280      -4.45826597       4.56229780
N        2.14316259      -5.71056366       4.58999768
N        1.71923742      -6.80652521       5.30282246
C        0.80696060      -6.64229071       6.21130898
C        0.31099592      -7.77822096       6.95241955
C        0.68511519      -9.10685943       6.87082803
C       -0.04564365      -9.93189798       7.77870203
C       -0.94328496      -9.19128902       8.50502085
S       -0.91615473      -7.54134037       8.12368114
H        3.62653644      -0.82698947       1.18193356
H        5.05476283      -2.23298125       2.63116155
H        4.05411681      -3.96121863       4.06881804
H        0.13028345      -2.91868817       2.58226995
H        2.96983115      -5.89840044       4.03134460
H        0.39854687      -5.65361918       6.48018516
H        1.44838261      -9.46727664       6.19054331
H        0.08796871     -11.00186175       7.87995305
C       -1.82327886      -9.75495344       9.49572421
C       -2.56027375     -10.22702239      10.32543828
Br      -3.75193215     -10.99031797      11.66701575
C       -0.00445707       0.01189536      -1.78238275
H       -0.66409135       0.67374010      -2.43557963
H        0.65740317      -0.63156657      -2.45157240
C       -0.90989263      -0.90692880      -0.91072765
C        0.90977584       0.90977584      -0.90977584
C       -0.00465871       1.77757030       0.00794375
H       -0.66225468       2.44313916      -0.64384735
H        0.64322798       2.43503045       0.67728295
C       -1.78241447       0.00034974      -0.00472694
H       -2.45427497      -0.65498947       0.64260836
H       -2.43311707       0.67328779      -0.65473579
C       -0.91132561       0.90220522       0.91563759
C       -0.01476271      -0.02253852       1.78660255
H       -0.67934791      -0.69751639       2.42135241
H        0.63392994       0.61504881       2.47327442
C        0.01484550      -1.77751727      -0.01636693
H        0.67870853      -2.42144646      -0.68295456
H       -0.62264859      -2.45592969       0.64226336
C        1.78714474       0.01002794       0.00389507
H        2.44202412       0.67113390       0.66197326
H        2.45385902      -0.65136977      -0.64189061
C        0.91606151      -0.90478549       0.90901405
