130
Properties=species:S:1:pos:R:3 pbc="F F F"
C        1.79141163       1.79141163      -1.79141163
C        1.61920780       1.78232074      -3.17208755
C        2.42610782       2.59439845      -3.97496877
C        3.40546533       3.42017736      -3.40525941
C        3.56842200       3.41346666      -2.01821983
C        2.76309163       2.60118888      -1.21125784
N        4.17279479       4.20764145      -4.28900236
C        5.17127516       5.10957708      -3.96881682
O        5.54298043       5.39665398      -2.83545238
C        5.86160182       5.77639694      -5.11601078
C        7.01655039       6.53130993      -4.85204968
C        7.71047266       7.15971259      -5.89107403
C        7.24909282       7.04203050      -7.20063083
C        6.10140541       6.30622950      -7.48024121
C        5.41865901       5.67992663      -6.43824486
F        4.31929684       4.97386559      -6.74657048
H        0.86395390       1.15214743      -3.63337273
H        2.27491266       2.57265402      -5.05124524
H        4.31622212       4.02830048      -1.52744140
H        2.90716740       2.61335885      -0.13395832
H        3.95171456       4.09543802      -5.27275796
H        7.38701065       6.62807666      -3.83194484
H        8.60674966       7.73311248      -5.66513694
H        5.72841250       6.20821604      -8.49512551
C        7.96639516       7.68272319      -8.27235385
C        8.56713586       8.21930332      -9.16992188
Br       9.53848278       9.08690801     -10.62121347
C       -1.79141163      -1.79141163      -1.79141163
C       -2.41702041      -2.90896296      -1.24763273
C       -3.22667359      -3.71093616      -2.05786529
C       -3.41803582      -3.40111357      -3.41175271
C       -2.77876154      -2.27865579      -3.94269116
C       -1.96676307      -1.47389298      -3.13488230
N       -4.25197686      -4.26288752      -4.15457422
C       -4.60908158      -4.15423249      -5.48635498
O       -4.27074178      -3.25504625      -6.24929876
C       -5.47261770      -5.24430067      -6.03709117
C       -5.68263619      -5.29198461      -7.42528919
C       -6.46630122      -6.30141113      -7.99354694
C       -7.05042582      -7.26615270      -7.17517563
C       -6.86141595      -7.22958402      -5.79687614
C       -6.07512799      -6.22173646      -5.23996605
F       -5.91015059      -6.22189496      -3.90768738
H       -2.28445367      -3.16488123      -0.20013916
H       -3.70655425      -4.57907908      -1.61317859
H       -2.88775860      -1.99855940      -4.98564599
H       -1.48023191      -0.60457237      -3.56968028
H       -4.63468761      -5.04750831      -3.63771462
H       -5.22886715      -4.54371679      -8.07444821
H       -6.60965082      -6.32379516      -9.07155311
H       -7.31262067      -7.97264175      -5.14649164
C       -7.85187488      -8.31012349      -7.75947382
C       -8.52308848      -9.18444904      -8.24882355
Br      -9.60838409     -10.59815949      -9.04006068
C       -1.79141163       1.79141163       1.79141163
C       -2.44499148       2.88889906       1.23972556
C       -3.25450411       3.69088433       2.05008660
C       -3.41785276       3.40101135       3.41203799
C       -2.75074283       2.29862902       3.95073664
C       -1.93879745       1.49393553       3.14280537
N       -4.25379444       4.26122490       4.15441925
C       -4.58663599       4.16930889       5.49372417
O       -4.22029206       3.28904590       6.26574883
C       -5.45927169       5.25398307       6.04075478
C       -5.64678752       5.32178660       7.43133588
C       -6.43790747       6.32747866       7.99587316
C       -7.05201146       7.26821653       7.17152616
C       -6.88552180       7.21134181       5.79101251
C       -6.09161647       6.20746553       5.23774850
F       -5.94900722       6.18768898       3.90303672
H       -2.33437041       3.12911835       0.18598529
H       -3.75648814       4.54316409       1.59915969
H       -2.83746504       2.03455603       4.99994293
H       -1.43031040       0.64042135       3.58375281
H       -4.65842234       5.03040452       3.63108367
H       -5.16952470       4.59239399       8.08511346
H       -6.56353874       6.36582144       9.07563891
H       -7.36015280       7.93554788       5.13605338
C       -7.86123020       8.30841838       7.75182361
C       -8.53895090       9.17958743       8.23782273
Br      -9.63476795      10.58819410       9.02364220
C        1.79141163      -1.79141163       1.79141163
C        1.72549432      -1.67200785       3.17611393
C        2.53172463      -2.48434095       3.97940946
C        3.40441291      -3.42011281       3.40637638
C        3.46176369      -3.52354701       2.01479780
C        2.65679917      -2.71142155       1.20731763
N        4.17915306      -4.19926467       4.29102088
C        5.08442011      -5.19464966       3.97059929
O        5.34793407      -5.58824834       2.83890438
C        5.81105547      -5.82939897       5.11355509
C        6.88657547      -6.68645680       4.82687772
C        7.61129015      -7.29089114       5.85907799
C        7.26000944      -7.04655854       7.18518617
C        6.19155165      -6.20795787       7.48836659
C        5.47757940      -5.60666915       6.45258196
F        4.45726926      -4.79929031       6.78317335
H        1.05369669      -0.95542902       3.64034835
H        2.46450696      -2.37539707       5.05890788
H        4.12499163      -4.22638191       1.52059045
H        2.71753285      -2.81037454       0.12657719
H        4.04178337      -4.00156757       5.27655960
H        7.17085330      -6.88269186       3.79348699
H        8.44520451      -7.94511215       5.61468244
H        5.90444670      -6.01065860       8.51664876
C        8.00959252      -7.66268580       8.24919388
C        8.63736835      -8.17869238       9.14030034
Br       9.65242877      -9.01303138      10.58114411
C       -0.00445707       0.01189536      -1.78238275
H       -0.66409135       0.67374010      -2.43557963
H        0.65740317      -0.63156657      -2.45157240
C       -0.90989263      -0.90692880      -0.91072765
C        0.90977584       0.90977584      -0.90977584
C       -0.00465871       1.77757030       0.00794375
H       -0.66225468       2.44313916      -0.64384735
H        0.64322798       2.43503045       0.67728295
C       -1.78241447       0.00034974      -0.00472694
H       -2.45427497      -0.65498947       0.64260836
H       -2.43311707       0.67328779      -0.65473579
C       -0.91132561       0.90220522       0.91563759
C       -0.01476271      -0.02253852       1.78660255
H       -0.67934791      -0.69751639       2.42135241
H        0.63392994       0.61504881       2.47327442
C        0.01484550      -1.77751727      -0.01636693
H        0.67870853      -2.42144646      -0.68295456
H       -0.62264859      -2.45592969       0.64226336
C        1.78714474       0.01002794       0.00389507
H        2.44202412       0.67113390       0.66197326
H        2.45385902      -0.65136977      -0.64189061
C        0.91606151      -0.90478549       0.90901405
