122
Properties=species:S:1:pos:R:3 pbc="F F F"
C        1.79141163       1.79141163      -1.79141163
C        1.61920780       1.78232074      -3.17208755
C        2.42610782       2.59439845      -3.97496877
C        3.40546533       3.42017736      -3.40525941
C        3.56842200       3.41346666      -2.01821983
C        2.76309163       2.60118888      -1.21125784
N        4.17279479       4.20764145      -4.28900236
C        5.17127516       5.10957708      -3.96881682
O        5.54298043       5.39665398      -2.83545238
C        5.86160182       5.77639694      -5.11601078
C        7.01655039       6.53130993      -4.85204968
C        7.71047266       7.15971259      -5.89107403
C        7.24909282       7.04203050      -7.20063083
Br       8.19023064       7.88265250      -8.60678695
C        6.10140541       6.30622950      -7.48024121
C        5.41865901       5.67992663      -6.43824486
F        4.31929684       4.97386559      -6.74657048
H        0.86395390       1.15214743      -3.63337273
H        2.27491266       2.57265402      -5.05124524
H        4.31622212       4.02830048      -1.52744140
H        2.90716740       2.61335885      -0.13395832
H        3.95171456       4.09543802      -5.27275796
H        7.38701065       6.62807666      -3.83194484
H        8.60674966       7.73311248      -5.66513694
H        5.72841250       6.20821604      -8.49512551
C       -1.79141163      -1.79141163      -1.79141163
C       -2.55131535      -2.80549882      -1.21680193
C       -3.36026532      -3.60757381      -2.02763591
C       -3.41708221      -3.40069060      -3.41312928
C       -2.64419790      -2.38170808      -3.97420250
C       -1.83248870      -1.57725482      -3.16579483
N       -4.26058866      -4.25447390      -4.15437605
C       -4.50098806      -4.23243414      -5.51624685
O       -4.02782208      -3.43134926      -6.31591545
C       -5.40857561      -5.29418153      -6.05125239
C       -5.51182674      -5.44384269      -7.44424056
C       -6.33180037      -6.43329228      -7.99616663
C       -7.05906282      -7.27536776      -7.15732357
Br      -8.16030738      -8.61855547      -7.90080724
C       -6.97684899      -7.13593786      -5.77508927
C       -6.15351098      -6.14923481      -5.23408471
F       -6.09468331      -6.04832844      -3.89672117
H       -2.52412811      -2.98044254      -0.14490341
H       -3.94626630      -4.39391829      -1.55862733
H       -2.64626328      -2.18421979      -5.04148092
H       -1.24056104      -0.78941822      -3.62450532
H       -4.74861788      -4.95934372      -3.61194894
H       -4.94590623      -4.79200720      -8.10911871
H       -6.39111996      -6.53652232      -9.07735681
H       -7.53987312      -7.78269586      -5.10918507
C       -1.79141163       1.79141163       1.79141163
C       -2.55694988       2.80074845       1.21591777
C       -3.36586871       3.60283023       2.02677610
C       -3.41703792       3.40067675       3.41318743
C       -2.63854981       2.38644252       3.97511616
C       -1.82685472       1.58200091       3.16668273
N       -4.26094339       4.25409615       4.15439906
C       -4.49643405       4.23604903       5.51718597
O       -4.01758988       3.43949605       6.31800086
C       -5.40589064       5.29646912       6.05164977
C       -5.50473524       5.45071758       7.44445717
C       -6.32626186       6.43921153       7.99578589
C       -7.05948397       7.27571456       7.15655561
Br      -8.16285730       8.61762659       7.89918620
C       -6.98167468       7.13166092       5.77454051
C       -6.15675478       6.14596426       5.23411146
F       -6.10230934       6.04051038       3.89691319
H       -2.53418476       2.97197335       0.14331595
H       -3.95632196       4.38541928       1.55707068
H       -2.63612956       2.19274594       5.04308849
H       -1.23050605       0.79790413       3.62607438
H       -4.75339653       4.95529768       3.61121633
H       -4.93414640       4.80326140       8.10962434
H       -6.38211551       6.54607603       9.07680754
H       -7.54935275       7.77404630       5.10835501
C        1.79141163      -1.79141163       1.79141163
C        1.58003396      -1.82738761       3.16619453
C        2.38719836      -2.63934407       3.96893261
C        3.40589939      -3.42015924       3.40484346
C        3.60775756      -3.36847101       2.02387992
C        2.80227112      -2.55615146       1.21711577
N        4.17052229      -4.21099531       4.28792100
C        5.20348965      -5.07462672       3.97155268
O        5.61530103      -5.31796375       2.84182201
C        5.88021001      -5.75476446       5.11903507
C        7.06364685      -6.46870540       4.86755773
C        7.74590109      -7.10720730       5.90815089
C        7.24443634      -7.04079048       7.20652732
Br       8.16949575      -7.89503107       8.61514327
C        6.06836836      -6.34619592       7.47331183
C        5.39742597      -5.70938949       6.43001504
F        4.26969691      -5.04397940       6.72605662
H        0.79401225      -1.23252228       3.62293952
H        2.20505338      -2.65322225       5.04053629
H        4.38671932      -3.94736181       1.53788286
H        2.97705281      -2.53287829       0.14455347
H        3.91853360      -4.13377257       5.26760437
H        7.46547126      -6.52522104       3.85633984
H        8.66452055      -7.64820779       5.69227075
H        5.66412477      -6.28835426       8.47927503
C       -0.00445707       0.01189536      -1.78238275
H       -0.66409135       0.67374010      -2.43557963
H        0.65740317      -0.63156657      -2.45157240
C       -0.90989263      -0.90692880      -0.91072765
C        0.90977584       0.90977584      -0.90977584
C       -0.00465871       1.77757030       0.00794375
H       -0.66225468       2.44313916      -0.64384735
H        0.64322798       2.43503045       0.67728295
C       -1.78241447       0.00034974      -0.00472694
H       -2.45427497      -0.65498947       0.64260836
H       -2.43311707       0.67328779      -0.65473579
C       -0.91132561       0.90220522       0.91563759
C       -0.01476271      -0.02253852       1.78660255
H       -0.67934791      -0.69751639       2.42135241
H        0.63392994       0.61504881       2.47327442
C        0.01484550      -1.77751727      -0.01636693
H        0.67870853      -2.42144646      -0.68295456
H       -0.62264859      -2.45592969       0.64226336
C        1.78714474       0.01002794       0.00389507
H        2.44202412       0.67113390       0.66197326
H        2.45385902      -0.65136977      -0.64189061
C        0.91606151      -0.90478549       0.90901405
