101
Properties=species:S:1:pos:R:3 pbc="F F F"
C        0.00000000       0.00000000       0.00000000
C        0.88150760       0.88150760      -0.88150760
C        0.70930378       0.87241672      -2.26218353
C        1.51620379       1.68449442      -3.06506475
C        2.49556131       2.51027333      -2.49535539
C        2.65851798       2.50356263      -1.10831580
C        1.85318761       1.69128486      -0.30135381
N        3.26289076       3.29773743      -3.37909834
C        4.26137113       4.19967305      -3.05891280
O        4.63307640       4.48674996      -1.92554836
C        4.95169779       4.86649291      -4.20610676
C        6.10664636       5.62140590      -3.94214565
C        6.80056864       6.24980857      -4.98117001
C        6.33918879       6.13212648      -6.29072680
Br       7.28032662       6.97274848      -7.69688292
C        5.19150138       5.39632547      -6.57033719
C        4.50875498       4.77002260      -5.52834084
F        3.40939282       4.06396157      -5.83666646
H       -0.04595012       0.24224340      -2.72346871
H        1.36500863       1.66274999      -4.14134122
H        3.40631810       3.11839645      -0.61753737
H        1.99726338       1.70345482       0.77594570
H        3.04181054       3.18553400      -4.36285393
H        6.47710663       5.71817264      -2.92204081
H        7.69684564       6.82320846      -4.75523292
H        4.81850848       5.29831202      -7.58522149
C       -0.88150760      -0.88150760      -0.88150760
C       -2.24674790      -0.62774609      -0.96941003
C       -3.04933799      -1.43520914      -1.78121584
C       -2.49448635      -2.49649816      -2.51020552
C       -1.12325915      -2.74043008      -2.40670718
C       -0.31671399      -1.93475952      -1.59435277
N       -3.37660469      -3.25821050      -3.30491134
C       -3.06704553      -4.32858527      -4.12432619
O       -1.94429821      -4.78395450      -4.31712200
C       -4.21392521      -4.99042347      -4.81994878
C       -3.97890743      -6.20411805      -5.48717244
C       -5.02051826      -6.87351908      -6.13750986
C       -6.30314954      -6.32903968      -6.12985286
Br      -7.71351392      -7.23636697      -7.00007713
C       -6.55308467      -5.12285519      -5.48222419
C       -5.50909120      -4.46489603      -4.83313119
F       -5.78891351      -3.30702805      -4.21407928
H       -2.69610051       0.19157070      -0.41523218
H       -4.11338275      -1.21957940      -1.83613770
H       -0.64496171      -3.55310049      -2.94418973
H        0.74823140      -2.14275513      -1.53024877
H       -4.34942937      -2.97274086      -3.26802824
H       -2.98017058      -6.63958938      -5.49756012
H       -4.81785609      -7.81585036      -6.64158057
H       -7.54653498      -4.68509096      -5.47041605
C       -0.88150760       0.88150760       0.88150760
C       -0.44516051       2.15092489       1.24781862
C       -1.25772247       2.95619096       2.05184953
C       -2.50869486       2.50088731       2.49160786
C       -2.92920802       1.22233198       2.11885641
C       -2.11813117       0.41294953       1.31474558
N       -3.26325170       3.37925036       3.29722447
C       -4.52334497       3.16925765       3.82735437
O       -5.21637086       2.17123527       3.65776858
C       -5.07239784       4.25694630       4.69495333
C       -6.24556207       4.00065773       5.42397811
C       -6.79030831       4.97684830       6.26439061
C       -6.16787497       6.21856846       6.37559864
Br      -6.89712879       7.53547784       7.51735139
C       -5.01029741       6.49401306       5.65385357
C       -4.47238593       5.51302199       4.82171050
F       -3.35177779       5.81239868       4.14584437
H        0.51942889       2.52403678       0.91515409
H       -0.89819644       3.94471730       2.32618611
H       -3.88514006       0.81921988       2.43789198
H       -2.46674893      -0.57819575       1.03621931
H       -2.82151405       4.27006382       3.49862060
H       -6.73909041       3.03238986       5.34583980
H       -7.69522284       4.75454939       6.82551479
H       -4.51608785       7.45784022       5.72811391
C        0.88150760      -0.88150760       0.88150760
C        2.11751942      -1.31463814       0.41174646
C        2.92312393      -2.11839106       1.22424797
C        2.50155476      -2.49132258       2.50831269
C        1.25603428      -2.05200434       2.96235779
C        0.44638202      -1.24795042       2.15149384
N        3.37776933      -3.30180005       3.26015715
C        3.19803219      -3.77440116       4.54752363
O        2.23569262      -3.53867484       5.27100725
C        4.27267542      -4.66300022       5.08862183
C        4.03561558      -5.33567915       6.29890319
C        4.99980272      -6.19285051       6.83889398
C        6.21052222      -6.37730262       6.17421724
Br       7.51070689      -7.54186706       6.89738407
C        6.46705128      -5.71205853       4.97905423
C        5.49802644      -4.86269023       4.44640176
F        5.77816580      -4.24279131       3.28906374
H        2.46433953      -1.03437130      -0.57894884
H        3.88526829      -2.44553530       0.83829625
H        0.87943740      -2.31779839       3.94501614
H       -0.51865172      -0.91693689       2.52648732
H        4.24186890      -3.55537123       2.79295833
H        3.09151811      -5.20010015       6.82570182
H        4.79241976      -6.70953258       7.77333468
H        7.40683643      -5.84361449       4.45159106
