109
Properties=species:S:1:pos:R:3 pbc="F F F"
C        0.00000000       0.00000000       0.00000000
C        0.88150760       0.88150760      -0.88150760
C        0.70930378       0.87241672      -2.26218353
C        1.51620379       1.68449442      -3.06506475
C        2.49556131       2.51027333      -2.49535539
C        2.65851798       2.50356263      -1.10831580
C        1.85318761       1.69128486      -0.30135381
N        3.26289076       3.29773743      -3.37909834
C        4.26137113       4.19967305      -3.05891280
O        4.63307640       4.48674996      -1.92554836
C        4.95169779       4.86649291      -4.20610676
C        6.10664636       5.62140590      -3.94214565
C        6.80056864       6.24980857      -4.98117001
C        6.33918879       6.13212648      -6.29072680
C        5.19150138       5.39632547      -6.57033719
C        4.50875498       4.77002260      -5.52834084
F        3.40939282       4.06396157      -5.83666646
H       -0.04595012       0.24224340      -2.72346871
H        1.36500863       1.66274999      -4.14134122
H        3.40631810       3.11839645      -0.61753737
H        1.99726338       1.70345482       0.77594570
H        3.04181054       3.18553400      -4.36285393
H        6.47710663       5.71817264      -2.92204081
H        7.69684564       6.82320846      -4.75523292
H        4.81850848       5.29831202      -7.58522149
C        7.05649113       6.77281917      -7.36244982
C        7.65723184       7.30939930      -8.26001785
Br       8.62857875       8.17700399      -9.71130944
C       -0.88150760      -0.88150760      -0.88150760
C       -2.26499933      -0.73942683      -0.83947786
C       -3.06799434      -1.54613037      -1.65163825
C       -2.49567357      -2.49524550      -2.51027096
C       -1.10567515      -2.62828018      -2.53644109
C       -0.29856370      -1.82306156      -1.72420102
N       -3.37979856      -3.26466583      -3.29526213
C       -3.05812928      -4.23667832      -4.22514938
O       -1.92362408      -4.57763325      -4.54411739
C       -4.20460585      -4.93738047      -4.88231115
C       -3.93264507      -6.07011666      -5.66743619
C       -4.97009483      -6.77288706      -6.28856532
C       -6.28627206      -6.34252313      -6.13324689
C       -6.57413451      -5.21697865      -5.36705088
C       -5.53352300      -4.52527031      -4.74832512
F       -5.84970783      -3.44802042      -4.01229260
H       -2.72843198      -0.00782880      -0.18350121
H       -4.14650777      -1.41873497      -1.60385711
H       -0.61258884      -3.35211480      -3.17754828
H        0.78102865      -1.94352134      -1.76227980
H       -4.36535665      -3.06733136      -3.15751046
H       -2.90725924      -6.41630357      -5.79375727
H       -4.73769049      -7.65173366      -6.88586287
H       -7.59432884      -4.86817378      -5.23953937
C       -7.35617644      -7.06910977      -6.76647391
C       -8.25222136      -7.67762609      -7.29680154
Br      -9.70105021      -8.66154550      -8.15429647
C       -0.88150760       0.88150760       0.88150760
C       -0.86825600       2.26261044       0.71303758
C       -1.68034444       3.06550560       1.51991293
C       -2.51027378       2.49539490       2.49552135
C       -2.50771611       1.10791078       2.65476952
C       -1.69544276       0.30093014       1.84945338
N       -3.29742590       3.37919109       3.26310953
C       -4.20289440       3.05875574       4.25830684
O       -4.49400339       1.92517483       4.62619650
C       -4.86849067       4.20588328       4.94992352
C       -5.62720722       3.94085797       6.10213273
C       -6.25468597       4.97970387       6.79715738
C       -6.13225778       6.29017103       6.33961327
C       -5.39263065       6.57087738       5.19465601
C       -4.76728967       5.52903521       4.51079355
F       -4.05745517       5.83840703       3.41415864
H       -0.23482317       2.72422281      -0.03928399
H       -1.65531117       4.14212092       1.37166775
H       -3.12586854       0.61678414       3.39959924
H       -1.71088525      -0.77671486       1.99060211
H       -3.18199442       4.36323044       3.04497361
H       -5.72770068       2.92002805       6.46959134
H       -6.83109414       4.75290767       7.69128520
H       -5.29089766       7.58649024       4.82465409
C       -6.77200167       7.36168574       7.05807272
C       -7.30778718       8.25907931       7.65978250
Br      -8.17410704       9.71008882       8.63269633
C        0.88150760      -0.88150760       0.88150760
C        1.48954410      -0.34307860       2.01128131
C        2.29264419      -1.15530626       2.81781252
C        2.49077266      -2.50713369       2.50328367
C        1.87711838      -3.03027211       1.36300593
C        1.07312293      -2.22002672       0.55267664
N        3.31407951      -3.25319279       3.37245422
C        3.63665465      -4.59548612       3.28781620
O        3.22878112      -5.37959951       2.43699409
C        4.57926811      -5.12214713       4.32288222
C        5.10110349      -6.41541218       4.15368225
C        6.00078301      -6.94834919       5.08241501
C        6.37906457      -6.19264701       6.19033049
C        5.86521666      -4.91324480       6.37970258
C        4.97201800      -4.38888378       5.44621664
F        4.50189729      -3.14950630       5.65861725
H        1.34639673       0.70119368       2.27455894
H        2.75802408      -0.71503433       3.69604143
H        2.00350974      -4.06793122       1.07081096
H        0.60467106      -2.64932044      -0.32921901
H        3.70398730      -2.73414204       4.15206912
H        4.81346325      -7.01399311       3.28986371
H        6.39839507      -7.94894490       4.92794705
H        6.14847503      -4.31399174       7.23957521
C        7.31064407      -6.73732686       7.14378920
C        8.09084189      -7.19349622       7.94231088
Br       9.35235578      -7.93108351       9.23345289
