122
Properties=species:S:1:pos:R:3 pbc="F F F"
C        1.79124234       1.79124234      -1.79124234
C        1.26514174       2.95081116      -2.35665835
C        2.07400019       3.75687805      -3.16429805
C        3.41309868       3.41042654      -3.41241465
C        4.22940466       4.31046444      -4.28554431
O        3.68102251       5.30847634      -4.74395183
N        5.54372326       3.94022186      -4.50488627
C        6.51064465       4.61030016      -5.28624992
C        6.26947755       5.79624651      -5.98404943
C        7.28238961       6.39845881      -6.73876881
C        8.54766922       5.82031913      -6.80292702
C        8.79306570       4.63928813      -6.10935583
Br      10.50824777       3.84605237      -6.18993717
C        7.78577674       4.03399409      -5.35475568
C        3.91362729       2.24160999      -2.83158426
F        5.18498198       1.86134520      -3.03360780
C        3.11506113       1.43134587      -2.02496012
H        0.23144242       3.23880169      -2.17863710
H        1.65133856       4.66122441      -3.60127957
H        5.86281666       3.08713879      -4.05745070
H        5.29959448       6.28353198      -5.96449170
H        7.07629802       7.32135335      -7.27581929
H        9.32753094       6.29537139      -7.39170359
H        8.00195318       3.11196835      -4.82216462
H        3.53856562       0.53068168      -1.59110938
C       -1.79124234      -1.79124234      -1.79124234
C       -1.47342968      -3.13690983      -1.96227175
C       -2.28182572      -3.94281736      -2.77053321
C       -3.41255979      -3.41039596      -3.41298412
C       -4.23869237      -4.32033627      -4.26638478
O       -3.88030003      -5.49045011      -4.36270053
N       -5.34569334      -3.76306154      -4.88007652
C       -6.27460783      -4.40205047      -5.73053642
C       -6.20681377      -5.74930946      -6.09365026
C       -7.16743286      -6.30813814      -6.94404623
C       -8.20641998      -5.52459936      -7.43989603
C       -8.27861700      -4.18221893      -7.08087373
Br      -9.68591022      -3.10944138      -7.74888572
C       -7.32251893      -3.61938105      -6.23262654
C       -3.70689990      -2.05717862      -3.22274302
F       -4.77414663      -1.49460896      -3.81117939
C       -2.90698469      -1.24550091      -2.41888152
H       -0.60307384      -3.57077714      -1.47503023
H       -2.02306069      -4.99375940      -2.89702245
H       -5.52144671      -2.77867086      -4.70728857
H       -5.41563383      -6.39917782      -5.73280651
H       -7.09843089      -7.35872956      -7.21631020
H       -8.94736405      -5.96758952      -8.09965235
H       -7.40039870      -2.56872745      -5.96696000
H       -3.16685377      -0.19866807      -2.29483484
C       -1.79124234       1.79124234       1.79124234
C       -3.09967585       1.40249303       2.07044237
C       -3.90590436       2.21150059       2.87777134
C       -3.41091572       3.41355003       3.41147411
C       -4.32015370       4.23834455       4.26691517
O       -5.45851336       3.81945545       4.45548187
N       -3.79824873       5.41273054       4.77785213
C       -4.44672573       6.35972130       5.60074769
C       -5.76901114       6.24434860       6.03641376
C       -6.34032296       7.22875007       6.85054420
C       -5.59421854       8.33905558       7.23764126
C       -4.27660046       8.45842882       6.80668038
Br      -3.25468013       9.96261313       7.32694405
C       -3.70153016       7.47902606       5.99397029
C       -2.09439000       3.77779351       3.11463803
F       -1.56836263       4.91465911       3.59691324
C       -1.28275788       2.97796514       2.31064410
H       -3.50428206       0.47639014       1.66820901
H       -4.92769746       1.89720220       3.08894288
H       -2.83644120       5.63150839       4.53945656
H       -6.38967378       5.39752711       5.76041727
H       -7.37130219       7.12238374       7.17978473
H       -6.04671024       9.09810160       7.86979408
H       -2.67084304       7.59494514       5.67029796
H       -0.26520917       3.29362514       2.10152238
C        1.79124234      -1.79124234       1.79124234
C        3.02263403      -1.31443292       2.23554430
C        3.82904227      -2.12352563       3.04260839
C        3.41113051      -3.41358181       3.41122755
C        4.31677231      -4.23373368       4.27490742
O        5.38493893      -3.73349788       4.61501387
N        3.87148853      -5.49655239       4.62079047
C        4.53412193      -6.45836444       5.41470835
C        5.79249967      -6.26690614       5.99036768
C        6.38326817      -7.27196445       6.76438461
C        5.72075492      -8.47933949       6.97082097
C        4.46697372      -8.67480838       6.39992756
Br       3.55878305     -10.31109828       6.67435598
C        3.87285635      -7.67518983       5.62648032
C        2.17086397      -3.86507514       2.95088243
F        1.72033436      -5.08820792       3.27139271
C        1.35972369      -3.06590768       2.14573575
H        3.36682028      -0.31930004       1.96276089
H        4.79021854      -1.73986569       3.38375831
H        2.96258877      -5.77733947       4.26747790
H        6.34716339      -5.34326396       5.85719081
H        7.36371921      -7.10537320       7.20437824
H        6.18773444      -9.25366098       7.57321050
H        2.89314893      -7.85178002       5.19115719
H        0.40270185      -3.45073459       1.80692024
C       -0.00445707       0.01189536      -1.78238275
H       -0.66409135       0.67374010      -2.43557963
H        0.65740317      -0.63156657      -2.45157240
C       -0.90989263      -0.90692880      -0.91072765
C        0.90977584       0.90977584      -0.90977584
C       -0.00465871       1.77757030       0.00794375
H       -0.66225468       2.44313916      -0.64384735
H        0.64322798       2.43503045       0.67728295
C       -1.78241447       0.00034974      -0.00472694
H       -2.45427497      -0.65498947       0.64260836
H       -2.43311707       0.67328779      -0.65473579
C       -0.91132561       0.90220522       0.91563759
C       -0.01476271      -0.02253852       1.78660255
H       -0.67934791      -0.69751639       2.42135241
H        0.63392994       0.61504881       2.47327442
C        0.01484550      -1.77751727      -0.01636693
H        0.67870853      -2.42144646      -0.68295456
H       -0.62264859      -2.45592969       0.64226336
C        1.78714474       0.01002794       0.00389507
H        2.44202412       0.67113390       0.66197326
H        2.45385902      -0.65136977      -0.64189061
C        0.91606151      -0.90478549       0.90901405
