126
Properties=species:S:1:pos:R:3 pbc="F F F"
C        1.78169173       1.78169173      -1.78169173
C        3.02782745       1.41263984      -2.21671943
C        3.61590676       2.43993527      -3.01287440
C        2.78809575       3.54101221      -3.16594457
S        1.30953281       3.31590500      -2.32011150
C        3.08850019       4.75484633      -3.92762377
O        4.21326607       4.95316180      -4.37230927
N        2.00753767       5.59087757      -4.10607454
C        2.07050916       6.74020110      -4.83936490
S        0.57397785       7.54314055      -4.99144620
C        1.33282521       8.75010997      -5.96253534
C        0.76937399       9.88352536      -6.57315460
C        1.61796107      10.71392801      -7.31082048
C        2.97506874      10.43604753      -7.44053271
C        3.52017733       9.30191567      -6.82909744
C        2.69084773       8.44250468      -6.08037301
N        3.09396998       7.28951602      -5.43281299
H        3.50417709       0.46770667      -1.98418597
H        4.59987670       2.37906129      -3.46674813
H        1.11025355       5.33301968      -3.72546082
H       -0.28906886      10.10064512      -6.47184172
H        3.62483363      11.09109660      -8.01590133
H        4.57747904       9.07254726      -6.92451083
C        1.07227248      11.88355048      -7.94941837
C        0.61525829      12.86310929      -8.48424409
Br      -0.12369500      14.44697305      -9.34901206
C       -1.78169173      -1.78169173      -1.78169173
C       -3.13018580      -1.59144738      -1.93555354
C       -3.68806234      -2.57210072      -2.80855337
C       -2.74033465      -3.45770070      -3.29701717
S       -1.18295832      -3.09331162      -2.66927936
C       -2.98334078      -4.57000655      -4.21762296
O       -4.12606980      -4.90496136      -4.50770598
N       -1.83717698      -5.14674958      -4.72056323
C       -1.85497039      -6.15601732      -5.63908745
S       -0.30638838      -6.62605845      -6.17611776
C       -1.03441050      -7.78544844      -7.22561159
C       -0.42448757      -8.67994738      -8.12161899
C       -1.25492081      -9.52850888      -8.85927987
C       -2.63857100      -9.49608194      -8.71699602
C       -3.23067969      -8.59753920      -7.82297155
C       -2.42140983      -7.72627668      -7.06603891
N       -2.87208006      -6.78826237      -6.15595656
H       -3.69752558      -0.80308632      -1.45545781
H       -4.73722218      -2.62775171      -3.08071223
H       -0.93646357      -4.78708417      -4.44518631
H        0.65474679      -8.70564276      -8.23252201
H       -3.27338709     -10.16276763      -9.29567683
H       -4.30963228      -8.56069481      -7.70421004
C       -0.66177253     -10.45702176      -9.78644704
C       -0.16501085     -11.23465130     -10.56294954
Br       0.63821078     -12.49201249     -11.81848840
C       -1.78169173       1.78169173       1.78169173
C       -1.65756725       3.14459994       1.85501954
C       -2.60743759       3.69576578       2.76551306
C       -3.42662526       2.73356021       3.33486706
S       -3.01428174       1.16572981       2.76553776
C       -4.50417610       2.96898974       4.29780446
O       -4.65679643       4.07196984       4.80997087
N       -5.30667697       1.87204115       4.52577166
C       -6.39940091       1.90802802       5.34264622
S       -7.28164499       0.44930627       5.37761333
C       -8.40957346       1.17046977       6.46542730
C       -9.56467695       0.61735865       7.04401834
C      -10.30962525       1.42520421       7.90788010
C       -9.92753243       2.73262723       8.19148932
C       -8.77655764       3.26970572       7.60492708
C       -8.00465270       2.48209582       6.72697691
N       -6.85430567       2.88647750       6.07551581
H       -0.93236133       3.72570754       1.29800085
H       -2.70032345       4.75304282       2.99231985
H       -5.12133607       1.00933050       4.03806747
H       -9.86271614      -0.40250475       6.82320660
H      -10.51500794       3.35017549       8.86664812
H       -8.46866441       4.28956965       7.81630308
C      -11.49896534       0.88891627       8.51735971
C      -12.49503767       0.43977512       9.02779889
Br     -14.10560237      -0.28644813       9.85313586
C        1.78169173      -1.78169173       1.78169173
C        1.62269797      -3.13810999       1.89637876
C        2.58229613      -3.69064758       2.79577272
C        3.44288437      -2.73657769       3.31559046
S        3.05753646      -1.17388684       2.71412601
C        4.54010403      -2.97575842       4.25510785
O        4.67695334      -4.06825397       4.79352983
N        5.37814768      -1.89585243       4.43048968
C        6.49186767      -1.94013172       5.21807576
S        7.41403072      -0.50619394       5.18833992
C        8.55188529      -1.22875534       6.26482989
C        9.73728327      -0.69259548       6.79617520
C       10.48384292      -1.49716418       7.66170247
C       10.07445302      -2.78522815       7.99196781
C        8.89339349      -3.30569925       7.45209770
C        8.11895487      -2.52098096       6.57378959
N        6.94031448      -2.91063580       5.96534871
H        0.86671337      -3.71365945       1.37569690
H        2.65273184      -4.74355637       3.04939791
H        5.20276086      -1.04186641       3.92410678
H       10.05662742       0.31217858       6.53896914
H       10.66355949      -3.40037253       8.66789954
H        8.56393936      -4.31045500       7.70014277
C       11.70385690      -0.97793162       8.22345281
C       12.72561860      -0.54307436       8.69391871
Br      14.37772087       0.16005306       9.45462230
C       -0.00445707       0.01189536      -1.78238275
H       -0.66409135       0.67374010      -2.43557963
H        0.65740317      -0.63156657      -2.45157240
C       -0.90989263      -0.90692880      -0.91072765
C        0.90977584       0.90977584      -0.90977584
C       -0.00465871       1.77757030       0.00794375
H       -0.66225468       2.44313916      -0.64384735
H        0.64322798       2.43503045       0.67728295
C       -1.78241447       0.00034974      -0.00472694
H       -2.45427497      -0.65498947       0.64260836
H       -2.43311707       0.67328779      -0.65473579
C       -0.91132561       0.90220522       0.91563759
C       -0.01476271      -0.02253852       1.78660255
H       -0.67934791      -0.69751639       2.42135241
H        0.63392994       0.61504881       2.47327442
C        0.01484550      -1.77751727      -0.01636693
H        0.67870853      -2.42144646      -0.68295456
H       -0.62264859      -2.45592969       0.64226336
C        1.78714474       0.01002794       0.00389507
H        2.44202412       0.67113390       0.66197326
H        2.45385902      -0.65136977      -0.64189061
C        0.91606151      -0.90478549       0.90901405
