97
Properties=species:S:1:pos:R:3 pbc="F F F"
C        0.00000000       0.00000000       0.00000000
C        0.87178770       0.87178770      -0.87178770
C        2.11792343       0.50273582      -1.30681541
C        2.70600274       1.53003124      -2.10297037
C        1.87819172       2.63110818      -2.25604054
S        0.39962879       2.40600097      -1.41020748
C        2.17859617       3.84494230      -3.01771975
O        3.30336204       4.04325777      -3.46240525
N        1.09763365       4.68097355      -3.19617052
C        1.16060514       5.83029707      -3.92946087
S       -0.33592618       6.63323652      -4.08154217
C        0.42292118       7.84020595      -5.05263132
C       -0.14053004       8.97362134      -5.66325057
C        0.70805704       9.80402398      -6.40091646
Br      -0.00919895      11.34138202      -7.24029294
C        2.06516472       9.52614350      -6.53062868
C        2.61027331       8.39201164      -5.91919341
C        1.78094371       7.53260066      -5.17046899
N        2.18406595       6.37961200      -4.52290897
H        2.59427306      -0.44219736      -1.07428194
H        3.68997267       1.46915727      -2.55684410
H        0.20034952       4.42311566      -2.81555679
H       -1.19897288       9.19074110      -5.56193770
H        2.71492960      10.18119258      -7.10599730
H        3.66757502       8.16264323      -6.01460681
C       -0.87178770      -0.87178770      -0.87178770
C       -2.22244524      -0.68929099      -1.01573842
C       -2.77964250      -1.66789994      -1.89146192
C       -1.82942033      -2.54418637      -2.39173375
S       -0.27038892      -2.17376842      -1.77167989
C       -2.07122170      -3.65209788      -3.31793864
O       -3.21362662      -3.99257032      -3.60282812
N       -0.92465189      -4.21816255      -3.83196327
C       -0.94189917      -5.22159574      -4.75686818
S        0.60616515      -5.67813870      -5.30687896
C       -0.12116353      -6.83544311      -6.35915182
C        0.48868699      -7.72019365      -7.26483521
C       -0.34102910      -8.56935108      -8.00261731
Br       0.43853635      -9.77685749      -9.23415486
C       -1.72390919      -8.54679753      -7.85123019
C       -2.31598506      -7.65787527      -6.94761803
C       -1.50745272      -6.78627871      -6.19028192
N       -1.95824594      -5.85707424      -5.27126674
H       -2.79172409       0.09227678      -0.52691034
H       -3.83016251      -1.72858977      -2.15722177
H       -0.02450664      -3.85445261      -3.56006272
H        1.56732377      -7.73818837      -7.38284131
H       -2.35815691      -9.21384294      -8.43011963
H       -3.39436090      -7.62878073      -6.82168342
C       -0.87178770       0.87178770       0.87178770
C       -0.73151208       2.23198095       0.96398162
C       -1.68588526       2.78370452       1.86941458
C       -2.52425225       1.82491818       2.41617002
S       -2.12441365       0.25924205       1.83218154
C       -3.61091413       2.06192028       3.36842381
O       -3.75617784       3.16023694       3.89261029
N       -4.42994942       0.97248434       3.57234395
C       -5.53242854       1.01210133       4.37583322
S       -6.43328142      -0.43561477       4.38118587
C       -7.56580449       0.28611700       5.46383696
C       -8.73501749      -0.25948715       6.02081153
C       -9.48068769       0.54685616       6.88545364
Br     -11.06273958      -0.14811750       7.65785392
C       -9.08585346       1.84565597       7.19042748
C       -7.92086840       2.37538254       6.62522743
C       -7.14781288       1.58910588       5.74709459
N       -5.98429591       1.98697919       5.11531182
H        0.00794908       2.81076966       0.42353707
H       -1.76837111       3.83914720       2.10845574
H       -4.24926616       0.11367601       3.07607980
H       -9.04300103      -1.27262941       5.78333429
H       -9.67406590       2.46209912       7.86595446
H       -7.60291246       3.38851851       6.85339409
C        0.87178770      -0.87178770       0.87178770
C        0.70841638      -2.22722146       0.99183681
C        1.66923754      -2.77997654       1.88979028
C        2.53502159      -1.82713160       2.40318726
S        2.15306230      -0.26521794       1.79755699
C        3.63471015      -2.06687944       3.33966863
O        3.76960964      -3.15794625       3.88146918
N        4.47717434      -0.98933536       3.50826801
C        5.59351274      -1.03477866       4.29207169
S        6.52061810       0.39577127       4.25400569
C        7.65972061      -0.32701182       5.32902603
C        8.84887670       0.20681896       5.85428413
C        9.59565291      -0.59732928       6.72001530
Br      11.20424795       0.08207158       7.45029964
C        9.18289302      -1.88276245       7.05628143
C        7.99810048      -2.40095011       6.52242778
C        7.22333037      -1.61659841       5.64408457
N        6.04117569      -2.00422192       5.04118931
H       -0.05143292      -2.80192410       0.47586646
H        1.73685556      -3.83222674       2.14689175
H        4.30300977      -0.13652562       2.99948659
H        9.17085117       1.20954233       5.59239707
H        9.77221504      -2.49760017       7.73230427
H        7.66598380      -3.40365169       6.77518957
