157
Properties=species:S:1:pos:R:3 pbc="F F F"
C        0.00000000       0.00000000       0.00000000
C        0.87163226       0.87163226      -0.87163226
C        1.64097082       0.39079291      -1.89914736
C        2.36455515       1.44431536      -2.53533184
C        2.09785142       2.68657329      -1.98287630
S        0.99004620       2.54802816      -0.67409116
C        2.65152695       3.97604788      -2.40496996
O        3.61643801       4.03555494      -3.15977756
N        1.95111643       5.06836563      -1.92222576
C        2.15868003       6.45341105      -2.15234787
C        3.31718236       6.90707029      -2.78464119
C        3.51941386       8.26301394      -2.99538349
C        2.56284164       9.18730712      -2.57970979
C        1.36419637       8.79877878      -1.93279875
C        0.35656904       9.73389872      -1.51003925
C       -0.79975032       9.26279455      -0.87997524
C       -0.99966067       7.90943895      -0.67171023
C       -0.03831644       6.99805755      -1.08627952
C        1.16576475       7.39668511      -1.71625945
N        0.54223060      11.13170446      -1.71545991
C       -0.36180532      12.16124466      -1.48171267
O       -1.52103492      12.00243298      -1.11225277
C        0.15634972      13.51006733      -1.69615418
C       -0.46242322      14.68700756      -1.30295748
C        0.28056643      15.84891674      -1.66252825
C        1.42757265      15.50693828      -2.33026728
Br       2.65097165      16.76445283      -2.98692177
S        1.63348156      13.83324124      -2.50441004
H        1.69417951      -0.65253244      -2.18693190
H        3.03922864       1.30705599      -3.37326121
H        1.14902600       4.81395455      -1.36807784
H        4.09689181       6.22826594      -3.11536814
H        4.42821387       8.60164396      -3.48777656
H        2.78770618      10.22821495      -2.78893331
H       -1.57897302       9.92420668      -0.51914984
H       -1.90960938       7.56508593      -0.18628772
H       -0.27852127       5.95677585      -0.90167095
H        1.43398479      11.43289158      -2.07702354
H       -1.41008225      14.70221545      -0.77451898
H       -0.02621331      16.86432653      -1.44393205
C       -0.87163226      -0.87163226      -0.87163226
C       -2.08697486      -1.36736151      -0.47657473
C       -2.67416891      -2.16616877      -1.50386466
C       -1.89422766      -2.22566385      -2.64740949
S       -0.43984486      -1.33011502      -2.44220565
C       -2.20516148      -2.93718676      -3.89019655
O       -3.10794632      -3.76606957      -3.93775462
N       -1.43538624      -2.53714849      -4.96917310
C       -1.48060673      -2.96083783      -6.32299440
C       -2.23901069      -4.07018212      -6.69970105
C       -2.26899297      -4.48630303      -8.02251529
C       -1.54277216      -3.79597348      -8.99111292
C       -0.75251179      -2.66213117      -8.68113094
C       -0.00820035      -1.92541115      -9.66689552
C        0.74490481      -0.81458106      -9.27334322
C        0.77245626      -0.40080665      -7.95313812
C        0.04843653      -1.09834606      -6.99611111
C       -0.72483619      -2.24199364      -7.31187949
N       -0.02338053      -2.33410257     -11.03191187
C        0.53305423      -1.68589859     -12.12830765
O        1.08279986      -0.58973013     -12.08672055
C        0.43943550      -2.40652925     -13.39547748
C        1.12036827      -2.08744783     -14.56046225
C        0.81480181      -2.96857322     -15.63824001
C       -0.10031809      -3.91279823     -15.25166188
Br      -0.76868930      -5.23123133     -16.40242563
S       -0.56949029      -3.77304318     -13.62859937
H       -2.53925875      -1.17931506       0.48999483
H       -3.63421651      -2.66383684      -1.42149248
H       -0.78809021      -1.79843391      -4.74453427
H       -2.81143986      -4.64805640      -5.98102962
H       -2.86312228      -5.35388873      -8.30062338
H       -1.62479238      -4.17551516     -10.00454690
H        1.34371483      -0.23864347      -9.96945487
H        1.35914366       0.47005136      -7.67095929
H        0.10938569      -0.70000483      -5.98930640
H       -0.49329557      -3.19863943     -11.25196491
H        1.81206703      -1.25381916     -14.62490005
H        1.24291461      -2.89464658     -16.63031330
C       -0.87163226       0.87163226       0.87163226
C       -1.01094333       2.22390559       0.69606218
C       -1.88756453       2.78120464       1.67543317
C       -2.39907463       1.82760574       2.54062063
S       -1.77916749       0.26732537       2.16567267
C       -3.33755146       2.05134714       3.64364620
O       -3.57336216       3.18198172       4.05642662
N       -3.94450554       0.89469995       4.10250234
C       -4.92803131       0.72483936       5.11156829
C       -5.26977661       1.77814378       5.96097347
C       -6.22296715       1.60179165       6.95305249
C       -6.85276497       0.36839693       7.10869664
C       -6.55640422      -0.74361178       6.28298145
C       -7.20532261      -2.02026552       6.41544993
C       -6.85311567      -3.06482275       5.55472655
C       -5.90252593      -2.88613749       4.56510007
C       -5.27871958      -1.65447577       4.42177683
C       -5.56816027      -0.55302908       5.26357812
N       -8.18740922      -2.22537550       7.42736124
C       -8.99268602      -3.34021662       7.62868261
O       -9.02219162      -4.32242999       6.89388920
C       -9.83864565      -3.29474747       8.81867305
C      -10.53459974      -4.36564225       9.35858432
C      -11.28470812      -4.00974095      10.51704424
C      -11.14078093      -2.67656866      10.80056593
Br     -11.99681999      -1.83055233      12.23607859
S      -10.11094270      -1.86543934       9.72562947
H       -0.51713829       2.79365751      -0.08221684
H       -2.15002885       3.83161413       1.73790285
H       -3.66648126       0.07041335       3.59416378
H       -4.79903959       2.75343430       5.88805200
H       -6.47742886       2.43147436       7.60873117
H       -7.59391507       0.31149242       7.89944695
H       -7.29177833      -4.05342756       5.62603273
H       -5.64953975      -3.71020234       3.90242686
H       -4.55934712      -1.59208936       3.61266777
H       -8.33347461      -1.47943408       8.08985938
H      -10.49683087      -5.36309887       8.93292018
H      -11.89243732      -4.69973609      11.08934405
C        0.87163226      -0.87163226       0.87163226
C        0.38387629      -1.68932692       1.85770789
C        1.44191526      -2.38133490       2.52095218
C        2.68890798      -2.08152898       1.99686405
S        2.55583932      -0.93543618       0.72089003
C        3.97960778      -2.62663866       2.42629836
O        4.08957778      -3.23874886       3.48344387
N        4.99971616      -2.43106461       1.51092706
C        6.35415459      -2.85261049       1.55767387
C        6.89776019      -3.38227199       2.72886167
C        8.22561355      -3.78089075       2.77130699
C        9.03048671      -3.65921820       1.64015364
C        8.54599144      -3.13150526       0.41827720
C        9.35410595      -3.01180948      -0.76540840
C        8.79350661      -2.48117652      -1.93166366
C        7.46821326      -2.08507492      -1.97179967
C        6.67688302      -2.20710700      -0.83796938
C        7.17449344      -2.71917057       0.38504530
N       10.72088754      -3.41436974      -0.74586232
C       11.61170285      -3.48019939      -1.81075023
O       11.31923340      -3.25540960      -2.98099218
C       12.98358546      -3.83713575      -1.45814998
C       14.08714170      -3.73141136      -2.29101124
C       15.29284646      -4.16821347      -1.66904852
C       15.05254057      -4.60439757      -0.39215993
Br      16.38843385      -5.27982837       0.73408403
S       13.42710840      -4.47287295       0.07115149
H       -0.66665121      -1.79288791       2.10234227
H        1.30078104      -3.08309859       3.33566620
H        4.69789716      -1.96041652       0.67274471
H        6.31568714      -3.48570513       3.63913362
H        8.63571038      -4.19004575       3.69187826
H       10.05455175      -4.00183552       1.74846718
H        9.36287708      -2.34544351      -2.84393708
H        7.05136582      -1.68195547      -2.89155703
H        5.64651338      -1.89061279      -0.95720063
H       11.10991264      -3.69202335       0.14196392
H       14.02133313      -3.35016168      -3.30484263
H       16.26510727      -4.16310070      -2.14616269
