165
Properties=species:S:1:pos:R:3 pbc="F F F"
C        0.00000000       0.00000000       0.00000000
C        0.87163226       0.87163226      -0.87163226
C        1.64097082       0.39079291      -1.89914736
C        2.36455515       1.44431536      -2.53533184
C        2.09785142       2.68657329      -1.98287630
S        0.99004620       2.54802816      -0.67409116
C        2.65152695       3.97604788      -2.40496996
O        3.61643801       4.03555494      -3.15977756
N        1.95111643       5.06836563      -1.92222576
C        2.15868003       6.45341105      -2.15234787
C        3.31718236       6.90707029      -2.78464119
C        3.51941386       8.26301394      -2.99538349
C        2.56284164       9.18730712      -2.57970979
C        1.36419637       8.79877878      -1.93279875
C        0.35656904       9.73389872      -1.51003925
C       -0.79975032       9.26279455      -0.87997524
C       -0.99966067       7.90943895      -0.67171023
C       -0.03831644       6.99805755      -1.08627952
C        1.16576475       7.39668511      -1.71625945
N        0.54223060      11.13170446      -1.71545991
C       -0.36180532      12.16124466      -1.48171267
O       -1.52103492      12.00243298      -1.11225277
C        0.15634972      13.51006733      -1.69615418
C       -0.46242322      14.68700756      -1.30295748
C        0.28056643      15.84891674      -1.66252825
C        1.42757265      15.50693828      -2.33026728
S        1.63348156      13.83324124      -2.50441004
H        1.69417951      -0.65253244      -2.18693190
H        3.03922864       1.30705599      -3.37326121
H        1.14902600       4.81395455      -1.36807784
H        4.09689181       6.22826594      -3.11536814
H        4.42821387       8.60164396      -3.48777656
H        2.78770618      10.22821495      -2.78893331
H       -1.57897302       9.92420668      -0.51914984
H       -1.90960938       7.56508593      -0.18628772
H       -0.27852127       5.95677585      -0.90167095
H        1.43398479      11.43289158      -2.07702354
H       -1.41008225      14.70221545      -0.77451898
H       -0.02621331      16.86432653      -1.44393205
C        2.36799704      16.47358723      -2.83503629
C        3.15560248      17.28315572      -3.25778034
Br       4.42909385      18.59215951      -3.94132171
C       -0.87163226      -0.87163226      -0.87163226
C       -2.10948872      -1.32515819      -0.49626418
C       -2.69092660      -2.13548868      -1.51778707
C       -1.88356206      -2.24540579      -2.63833315
S       -0.41173217      -1.38259342      -2.41783993
C       -2.18104905      -2.98136036      -3.87013538
O       -3.10396306      -3.78761925      -3.92018820
N       -1.37332762      -2.63008456      -4.93829564
C       -1.39478430      -3.08820940      -6.28144526
C       -2.17235107      -4.18719329      -6.64934949
C       -2.17918015      -4.63732638      -7.96130476
C       -1.41013768      -3.99190683      -8.92781405
C       -0.59836346      -2.87103354      -8.62637689
C        0.19043058      -2.18017770      -9.61075990
C        0.96230649      -1.07912554      -9.22620042
C        0.96671158      -0.63134375      -7.91685635
C        0.19997637      -1.28433183      -6.96166518
C       -0.59493236      -2.41559583      -7.26818113
N        0.19968041      -2.62438758     -10.96468780
C        0.80123704      -2.02006787     -12.06232118
O        1.37859450      -0.93774660     -12.03449872
C        0.72130450      -2.77138315     -13.31249259
C        1.44031932      -2.50099446     -14.46686668
C        1.13943754      -3.40219903     -15.52924993
C        0.18992613      -4.31189227     -15.14281206
S       -0.31713922      -4.11708321     -13.53691041
H       -2.58144128      -1.09993256       0.45279487
H       -3.66563846      -2.60583599      -1.44807139
H       -0.71269157      -1.90263850      -4.71572832
H       -2.77827076      -4.73083299      -5.93142213
H       -2.78872169      -5.49634604      -8.23256666
H       -1.47598980      -4.39593914      -9.93292550
H        1.59395494      -0.53750444      -9.92083400
H        1.56879793       0.23124612      -7.64180832
H        0.24544151      -0.86114439      -5.96422266
H       -0.28715057      -3.48202946     -11.17471988
H        2.15531032      -1.68751044     -14.53445206
H        1.59483996      -3.36568299     -16.51120225
C       -0.32752077      -5.33485814     -16.01424165
C       -0.76088255      -6.19159206     -16.74406393
Br      -1.46159188      -7.57685835     -17.92412484
C       -0.87163226       0.87163226       0.87163226
C       -0.47641288       2.08677439       1.36772382
C       -1.50375041       2.67401986       2.16643207
C       -2.64748403       1.89432258       2.22549440
S       -2.44240587       0.44009514       1.32966452
C       -3.89036118       2.20537596       2.93680765
O       -3.93790266       3.10798498       3.76588286
N       -4.96942083       1.43593353       2.53635347
C       -6.32332722       1.48136333       2.95974840
C       -6.70011286       2.23960246       4.06917854
C       -8.02301392       2.26978877       4.48500860
C       -8.99161954       1.54394124       3.79429777
C       -8.68156022       0.75386623       2.66034744
C       -9.66732643       0.00994237       1.92323821
C       -9.27369361      -0.74300141       0.81232726
C       -7.95340168      -0.77075683       0.39884366
C       -6.99636879      -0.04710941       1.09676125
C       -7.31222054       0.72597705       2.24051172
N      -11.03243125       0.02533776       2.33162595
C      -12.12880630      -0.53070444       1.68305015
O      -12.08709623      -1.08021280       0.58676740
C      -13.39611716      -0.43696270       2.40341677
C      -14.56118326      -1.11756152       2.08392008
C      -15.63909048      -0.81195079       2.96487172
C      -15.25251897       0.10286967       3.90938956
S      -13.62931955       0.57170807       3.77010521
H        0.49030069       2.53888306       1.17999659
H       -1.42127425       3.63393692       2.66433467
H       -4.74476141       0.78875317       1.79754381
H       -5.98144272       2.81173989       4.64734327
H       -8.30118356       2.86378546       5.35266537
H      -10.00512042       1.62610412       4.17362991
H       -9.96981034      -1.34152520       0.23609836
H       -7.67115889      -1.35731179      -0.47208283
H       -5.98948821      -0.10819549       0.69863281
H      -11.25257310       0.49510780       3.19621900
H      -14.62558908      -1.80905821       1.25012132
H      -16.63124340      -1.23982370       2.89062558
C      -16.13722121       0.61661632       4.92278303
C      -16.87815934       1.04687914       5.77150006
Br     -18.07619362       1.74257773       7.14380372
C        0.87163226      -0.87163226       0.87163226
C        1.57454619      -1.95175907       0.40460584
C        2.29739439      -2.58852659       1.45828136
C        2.13539256      -1.95314179       2.67876666
S        1.07831223      -0.60417996       2.52967334
C        2.74747751      -2.32897222       3.95609507
O        3.28775904      -3.42010810       4.10390337
N        2.69976986      -1.32925398       4.91268399
C        3.22186172      -1.31025363       6.23232361
C        3.70592384      -2.47673808       6.82623194
C        4.20344560      -2.45359538       8.12077030
C        4.22801688      -1.26080588       8.84103579
C        3.75422386      -0.03977481       8.30177522
C        3.78483875       1.20532559       9.02099386
C        3.29811712       2.36574524       8.41064758
C        2.80313102       2.34029516       7.11865266
C        2.77978596       1.14580162       6.41203630
C        3.23896674      -0.07417750       6.96556507
N        4.29100338       1.25375976      10.35215134
C        4.50392515       2.37219458      11.14942144
O        4.34263629       3.53207455      10.78308909
C        4.94088693       2.09344386      12.51512815
C        4.98306039       3.01014389      13.55462531
C        5.46677182       2.44521152      14.77045111
C        5.78863512       1.12391711      14.60006020
S        5.49648891       0.55528924      13.02993317
H        1.57720145      -2.27958450      -0.62820698
H        2.92473899      -3.46394287       1.33086399
H        2.26913249      -0.48089625       4.58102965
H        3.69679304      -3.43226681       6.31146604
H        4.57545033      -3.37115776       8.57102630
H        4.64120654      -1.32086629       9.84278161
H        3.27428182       3.32487607       8.91497775
H        2.43653772       3.25608294       6.66130948
H        2.39286873       1.21420647       5.40126327
H        4.53299129       0.37754801      10.78845664
H        4.67262764       4.04329817      13.43732271
H        5.57277342       2.99075163      15.70002348
C        6.32248647       0.29712146      15.65125556
C        6.76958697      -0.39531989      16.53163168
Br       7.49251067      -1.51493900      17.95512540
