178
Properties=species:S:1:pos:R:3 pbc="F F F"
C        1.78153628       1.78153628      -1.78153628
C        2.55087485       1.30069694      -2.80905139
C        3.27445917       2.35421938      -3.44523587
C        3.00775544       3.59647732      -2.89278032
S        1.89995023       3.45793219      -1.58399519
C        3.56143098       4.88595190      -3.31487399
O        4.52634203       4.94545897      -4.06968158
N        2.86102046       5.97826966      -2.83212978
C        3.06858406       7.36331508      -3.06225189
C        4.22708639       7.81697432      -3.69454522
C        4.42931788       9.17291796      -3.90528751
C        3.47274566      10.09721115      -3.48961381
C        2.27410039       9.70868280      -2.84270278
C        1.26647307      10.64380275      -2.41994327
C        0.11015370      10.17269857      -1.78987926
C       -0.08975665       8.81934298      -1.58161426
C        0.87158759       7.90796157      -1.99618355
C        2.07566878       8.30658914      -2.62616347
N        1.45213462      12.04160849      -2.62536393
C        0.54809871      13.07114869      -2.39161669
O       -0.61113090      12.91233700      -2.02215679
C        1.06625374      14.41997136      -2.60605820
C        0.44748080      15.59691158      -2.21286150
C        1.19047045      16.75882076      -2.57243227
C        2.33747667      16.41684230      -3.24017131
Br       3.56087568      17.67435685      -3.89682580
S        2.54338558      14.74314527      -3.41431406
H        2.60408354       0.25737158      -3.09683592
H        3.94913266       2.21696001      -4.28316523
H        2.05893002       5.72385857      -2.27798187
H        5.00679583       7.13816997      -4.02527216
H        5.33811790       9.51154798      -4.39768058
H        3.69761020      11.13811897      -3.69883734
H       -0.66906899      10.83411071      -1.42905386
H       -0.99970536       8.47498995      -1.09619175
H        0.63138276       6.86667987      -1.81157498
H        2.34388881      12.34279561      -2.98692757
H       -0.50017823      15.61211947      -1.68442301
H        0.88369072      17.77423055      -2.35383608
C       -1.78153628      -1.78153628      -1.78153628
C       -1.41596139      -3.02936863      -2.21529315
C       -2.43463092      -3.60826913      -3.03101437
C       -3.54371760      -2.78873564      -3.16455984
S       -3.31562036      -1.30917552      -2.31708172
C       -4.77004023      -3.08025041      -3.91196623
O       -4.82164464      -4.01235540      -4.70748254
N       -5.83236061      -2.25531270      -3.58374659
C       -7.16999438      -2.26605778      -4.05809887
C       -7.53404614      -3.05257534      -5.15198444
C       -8.84040725      -3.04897636      -5.61813975
C       -9.80515058      -2.26032361      -4.99409643
C       -9.50740078      -1.43852452      -3.87956067
C      -10.49032495      -0.62934540      -3.21054874
C      -10.10971578       0.15130484      -2.11432059
C       -8.80596673       0.14528504      -1.65051890
C       -7.85241921      -0.64101627      -2.28229723
C       -8.15491261      -1.44601865      -3.40749013
N      -11.83852631      -0.60908580      -3.67149493
C      -12.93593823       0.01319633      -3.08812218
O      -12.91418232       0.60347048      -2.01265106
C      -14.17775835      -0.06076232      -3.85376263
C      -15.32638815       0.67553482      -3.60640055
C      -16.38134680       0.37652562      -4.51690231
C      -15.99559438      -0.58876311      -5.41013279
Br     -17.12116072      -1.26440955      -6.74648805
S      -14.39855686      -1.11290629      -5.18938177
H       -0.47560538      -3.51003081      -1.97265485
H       -2.37121382      -4.58948174      -3.48856235
H       -5.61054108      -1.58851859      -2.86171080
H       -6.81707595      -3.67384807      -5.67931394
H       -9.10868198      -3.66571262      -6.47295186
H      -10.80600292      -2.31890702      -5.40965657
H      -10.80305396       0.79799393      -1.58903555
H       -8.53404182       0.75456514      -0.79199966
H       -6.85971923      -0.60248726      -1.84743112
H      -12.04408450      -1.10385854      -4.52566894
H      -15.39505542       1.40126960      -2.80257843
H      -17.35798244       0.84426728      -4.49804218
C       -1.78153628       1.78153628       1.78153628
C       -2.55679116       2.80412777       1.29970424
C       -3.26018074       3.45711853       2.35661515
C       -3.01135624       2.88978370       3.59587314
S       -1.89817459       1.58547289       3.45823012
C       -3.58125250       3.29837831       4.88262606
O       -4.16636168       4.36926093       5.00585997
N       -3.44100685       2.34945914       5.88095391
C       -3.90002547       2.37031780       7.22380777
C       -4.41207795       3.54059334       7.78593464
C       -4.84754082       3.55723808       9.10274446
C       -4.78097732       2.40088997       9.87770334
C       -4.27400257       1.17836361       9.37311979
C       -4.21098279      -0.03050802      10.14974431
C       -3.69733024      -1.19540596       9.57080726
C       -3.26439160      -1.20974242       8.25655141
C       -3.33163041      -0.05108940       7.49519170
C       -3.82331541       1.17175397       8.01335202
N       -4.65215147      -0.03772302      11.50467858
C       -4.77356019      -1.12485583      12.36215973
O       -4.57336027      -2.29243010      12.04243273
C       -5.15993835      -0.80074824      13.73309320
C       -5.10956349      -1.66697168      14.81466208
C       -5.56337920      -1.06674738      16.02509166
C       -5.95641659       0.22845227      15.80962142
Br      -6.63826975       1.33578679      17.15800179
S       -5.76503460       0.73322460      14.20258571
H       -2.62305166       3.08105045       0.25418893
H       -3.93442329       4.29540652       2.21942809
H       -2.98555504       1.50683500       5.56838043
H       -4.47305474       4.46945699       7.22772623
H       -5.24236422       4.47736777       9.52761446
H       -5.14985893       2.49026101      10.89444658
H       -3.60376903      -2.12684590      10.11717245
H       -2.87538098      -2.12869497       7.82479033
H       -2.98897510      -0.15043762       6.47110013
H       -4.91589088       0.84648098      11.91124012
H       -4.75518706      -2.68914606      14.73032325
H       -5.59975325      -1.57091968      16.98292378
C        1.78153628      -1.78153628       1.78153628
C        2.21772446      -1.41473737       3.02816134
C        3.03278294      -2.43376305       3.60736843
C        3.16342214      -3.54428265       2.78930829
S        2.31405814      -3.31713579       1.31068367
C        3.90941987      -4.77129068       3.08154633
O        4.70626234      -4.82269110       4.01252914
N        3.57835728      -5.83435585       2.25870677
C        4.05071048      -7.17268576       2.27075479
C        5.14523150      -7.53720201       3.05617241
C        5.60941321      -8.84426856       3.05384158
C        4.98272927      -9.80925616       2.26758520
C        3.86740506      -9.51106370       1.44701721
C        3.19569427     -10.49419518       0.64032964
C        2.09886446     -10.11310919      -0.13924212
C        1.63703608      -8.80865460      -0.13449008
C        2.27143461      -7.85487799       0.64942010
C        3.39738346      -8.15785540       1.45318252
N        3.65457875     -11.84311912       0.62140917
C        3.06861641     -12.94058581       0.00166186
O        1.99229031     -12.91809691      -0.58702432
C        3.83249673     -14.18344638       0.07634019
C        3.58229523     -15.33280925      -0.65785059
C        4.49165729     -16.38868835      -0.35862216
C        5.38692232     -16.00283033       0.60473762
Br       6.72259860     -17.12939204       1.28006768
S        5.16936706     -14.40467428       1.12680358
H        1.97722756      -0.47329381       3.50776967
H        3.49190511      -2.36955859       4.58779421
H        2.85565157      -5.61245200       1.59266689
H        5.67457633      -6.82009318       3.67556845
H        6.46474949      -9.11290312       3.66969385
H        5.39686974     -10.81064470       2.32705208
H        1.57156134     -10.80662741      -0.78409317
H        0.77800942      -8.53635305      -0.74288613
H        1.83800619      -6.86158248       0.61004894
H        4.50918744     -12.04921997       1.11520457
H        2.77727708     -15.40135695      -1.38226978
H        4.47062121     -17.36599766      -0.82486153
C       -0.00445707       0.01189536      -1.78238275
H       -0.66409135       0.67374010      -2.43557963
H        0.65740317      -0.63156657      -2.45157240
C       -0.90989263      -0.90692880      -0.91072765
C        0.90977584       0.90977584      -0.90977584
C       -0.00465871       1.77757030       0.00794375
H       -0.66225468       2.44313916      -0.64384735
H        0.64322798       2.43503045       0.67728295
C       -1.78241447       0.00034974      -0.00472694
H       -2.45427497      -0.65498947       0.64260836
H       -2.43311707       0.67328779      -0.65473579
C       -0.91132561       0.90220522       0.91563759
C       -0.01476271      -0.02253852       1.78660255
H       -0.67934791      -0.69751639       2.42135241
H        0.63392994       0.61504881       2.47327442
C        0.01484550      -1.77751727      -0.01636693
H        0.67870853      -2.42144646      -0.68295456
H       -0.62264859      -2.45592969       0.64226336
C        1.78714474       0.01002794       0.00389507
H        2.44202412       0.67113390       0.66197326
H        2.45385902      -0.65136977      -0.64189061
C        0.91606151      -0.90478549       0.90901405
