94
Properties=species:S:1:pos:R:3 pbc="F F F"
C        1.82388732       1.82388732      -1.82388732
C        1.02367178       2.38681726      -2.96188562
C        0.07554995       3.38385544      -2.74418183
C       -0.62910512       3.89048690      -3.83005479
C       -0.36768543       3.39844138      -5.10361421
C        0.59390234       2.40258304      -5.25475781
C        0.91850975       1.85391231      -6.61298732
N        1.28408979       1.89682034      -4.20085622
H        2.63923391       1.18867850      -2.18206360
H        2.23774218       2.61653226      -1.19412104
H       -0.11649433       3.76296435      -1.74506790
H       -1.37477130       4.66743178      -3.68502722
H       -0.90394643       3.79206657      -5.96124666
H        0.03000611       1.77942554      -7.24656767
H        1.39379009       0.87105615      -6.54545638
C        1.85187924       2.72645374      -7.27713552
C        2.63357619       3.45720719      -7.83335964
Br       3.89751405       4.63877371      -8.73272700
C       -1.82388732      -1.82388732      -1.82388732
C       -2.55846794      -2.82860041      -0.98530632
C       -3.60846759      -2.43737516      -0.15774446
C       -4.27406359      -3.40425238       0.58687940
C       -3.88365696      -4.73441789       0.48370469
C       -2.82738955      -5.06079667      -0.36305698
C       -2.38336538      -6.48577590      -0.51626810
N       -2.16691691      -4.12418948      -1.09065995
H       -1.15743895      -2.31074607      -2.54179099
H       -2.51499300      -1.17004394      -2.36335854
H       -3.90677359      -1.39567809      -0.08908623
H       -5.09519003      -3.12316095       1.24066329
H       -4.40114027      -5.50054077       1.05231424
H       -2.44577704      -7.03677658       0.42655430
H       -1.36125393      -6.54828190      -0.90076679
C       -3.23101154      -7.15736851      -1.46708845
C       -3.94091521      -7.71982733      -2.26340049
Br      -5.08876939      -8.62927566      -3.55096971
C       -1.82388732       1.82388732       1.82388732
C       -3.27070197       1.62115303       1.48051967
C       -3.92970437       0.44452850       1.82935435
C       -5.27537180       0.30703818       1.50902658
C       -5.93188998       1.34485470       0.85762548
C       -5.21694572       2.49633251       0.53796497
C       -5.88989231       3.64671892      -0.15120185
N       -3.90144696       2.63916110       0.84115829
H       -1.50953162       2.85612160       1.64432279
H       -1.61889531       1.56336760       2.86613257
H       -3.40686275      -0.35720901       2.34188417
H       -5.81041354      -0.60214772       1.76942188
H       -6.98482106       1.25426598       0.61027977
H       -6.62976395       3.30869870      -0.88246333
H       -5.16414969       4.29580080      -0.64964787
C       -6.57940714       4.45636757       0.81969379
C       -7.15687581       5.13444831       1.63281890
Br      -8.09059381       6.23084752       2.94757343
C        1.82388732      -1.82388732       1.82388732
C        2.39231248      -1.02205369       2.95800850
C        1.58459460      -0.60534946       4.01364315
C        2.15687888       0.11863734       5.05319502
C        3.51725105       0.40266941       5.01978852
C        4.27038851      -0.04391959       3.93693510
C        5.74449818       0.22708876       3.86799995
N        3.72097169      -0.74696116       2.91383349
H        2.61247390      -2.21999168       1.17751043
H        1.20900434      -2.65219438       2.18719676
H        0.52403275      -0.83722197       4.03028320
H        1.54684486       0.45590206       5.88674489
H        3.97849359       0.95884061       5.82971382
H        5.99804386       1.21218285       4.27013831
H        6.11873801       0.15141073       2.84297534
C        6.45406065      -0.75427054       4.64713731
C        7.04831922      -1.57615895       5.29966485
Br       8.00918507      -2.90508300       6.35474669
C       -0.00445707       0.01189536      -1.78238275
H       -0.66409135       0.67374010      -2.43557963
H        0.65740317      -0.63156657      -2.45157240
C       -0.90989263      -0.90692880      -0.91072765
C        0.90977584       0.90977584      -0.90977584
C       -0.00465871       1.77757030       0.00794375
H       -0.66225468       2.44313916      -0.64384735
H        0.64322798       2.43503045       0.67728295
C       -1.78241447       0.00034974      -0.00472694
H       -2.45427497      -0.65498947       0.64260836
H       -2.43311707       0.67328779      -0.65473579
C       -0.91132561       0.90220522       0.91563759
C       -0.01476271      -0.02253852       1.78660255
H       -0.67934791      -0.69751639       2.42135241
H        0.63392994       0.61504881       2.47327442
C        0.01484550      -1.77751727      -0.01636693
H        0.67870853      -2.42144646      -0.68295456
H       -0.62264859      -2.45592969       0.64226336
C        1.78714474       0.01002794       0.00389507
H        2.44202412       0.67113390       0.66197326
H        2.45385902      -0.65136977      -0.64189061
C        0.91606151      -0.90478549       0.90901405
