153
Properties=species:S:1:pos:R:3 pbc="F F F"
C        0.00000000       0.00000000       0.00000000
O        6.45258033      11.35660891       3.50550694
C        6.88689450      10.39617306       2.87249996
C        5.92982443       9.41720680       2.21793424
S        6.29668069       9.21071096       0.44800356
C        5.04878055       8.04958896       0.06198807
N        3.87030127       8.07273972       0.64360775
N        3.09024435       6.99614584       0.26895552
C        3.71844702       6.21466398      -0.57372669
S        5.27625846       6.74818180      -1.02987178
N        3.34973824       5.01218236      -1.11095875
C        2.14755395       4.42006273      -0.80506053
O        1.26439224       4.90915150      -0.11201162
C        1.94235207       3.02939239      -1.31359789
C        1.12351244       2.20438276      -0.51748329
C        0.88120149       0.88120149      -0.88120149
C        1.44155396       0.35705254      -2.04090269
C        2.24486814       1.16743424      -2.84476327
C        2.49578850       2.50045625      -2.48982275
Cl       3.47613762       3.41136984      -3.58495437
N        8.22151338      10.04598161       2.74201522
C        9.33607501      10.68395467       3.32404831
C        9.24297885      11.74858283       4.22409733
C       10.39586200      12.32431378       4.76985389
C       11.64906903      11.83503232       4.41601056
Br      13.20515147      12.61309287       5.15302390
C       11.76060325      10.77361161       3.52256320
C       10.60556105      10.19984390       2.98009739
H        4.91044542       9.79581597       2.34605340
H        6.01432812       8.45455725       2.73398659
H        4.01682853       4.56165978      -1.72040403
H        0.67890999       2.60182727       0.39506478
H        1.25514301      -0.67432908      -2.33101701
H        2.66877960       0.75064733      -3.75675818
H        8.42146318       9.28306845       2.10633262
H        8.28526886      12.15667802       4.53208869
H       10.29636211      13.15113085       5.46815404
H       12.73603587      10.38617011       3.24213948
H       10.71721897       9.37200583       2.28430988
O       -5.79356531       3.26559617     -11.77571316
C       -5.16778444       2.24666746     -11.48945062
C       -4.95605475       1.86343878     -10.03648102
S       -5.51309721       0.16274434      -9.70903521
C       -5.11102478       0.08464774      -8.01000440
N       -5.20969222       1.13120562      -7.22094662
N       -4.73124364       0.86635223      -5.95254326
C       -4.29447074      -0.36402844      -5.84833850
S       -4.48275352      -1.31874286      -7.25281565
N       -3.66493710      -0.99621235      -4.81172990
C       -3.39219581      -0.35195555      -3.62852585
O       -3.73469386       0.78728801      -3.33814951
C       -2.54407557      -1.09454378      -2.64672300
C       -1.73089523      -0.29636894      -1.81811431
C       -0.88120149      -0.88120149      -0.88120149
C       -0.82800163      -2.26426302      -0.74724454
C       -1.63742334      -3.06590018      -1.55374212
C       -2.49682520      -2.48944535      -2.49979696
Cl      -3.47408775      -3.58570062      -3.41267346
N       -4.53772610       1.40095285     -12.38870652
C       -4.45418190       1.54682214     -13.78862161
C       -4.93688760       2.65648864     -14.48706539
C       -4.80747517       2.73543259     -15.87827931
C       -4.19264883       1.70154206     -16.57698401
Br      -4.01860246       1.80871158     -18.45532956
C       -3.70391541       0.58957058     -15.89730684
C       -3.83404407       0.51496411     -14.50622761
H       -5.51578042       2.56642226      -9.41084982
H       -3.88949725       1.96045367      -9.80585521
H       -3.37984424      -1.95229464      -4.96675346
H       -1.76145096       0.78915783      -1.91337935
H       -0.16807733      -2.72675725      -0.01699635
H       -1.59683230      -4.14699467      -1.43235814
H       -4.14727719       0.55033886     -12.00126068
H       -5.41722703       3.48799393     -13.98062509
H       -5.19088256       3.60953247     -16.39798883
H       -3.22226939      -0.22129455     -16.43650256
H       -3.44493869      -0.36312350     -13.99685272
O      -13.48871422       0.96400899      -0.14904090
C      -12.74242096       0.84706666       0.82107998
C      -11.26563875       1.17149914       0.69195910
S      -10.73545492       2.37160909       1.95232408
C       -9.04806609       2.47845114       1.50986421
N       -8.64742048       2.39092951       0.26108324
N       -7.26973606       2.38595484       0.16174378
C       -6.70043385       2.46795410       1.33844974
S       -7.77993586       2.62026591       2.65411026
N       -5.38070278       2.40107467       1.69110190
C       -4.38857562       2.22860963       0.75549196
O       -4.54683180       2.19709359      -0.45837004
C       -3.01014963       1.99188774       1.28330498
C       -2.17928056       1.18813176       0.47796616
C       -0.88120149       0.88120149       0.88120149
C       -0.38495488       1.36972638       2.08482794
C       -1.19376752       2.17707970       2.88621843
C       -2.50139120       2.49338172       2.49129459
Cl      -3.39028390       3.53041809       3.55175984
N      -13.10087075       0.35746608       2.06714294
C      -14.36179185      -0.13159606       2.46578559
C      -15.44871010      -0.28207247       1.60082673
C      -16.66792995      -0.78569042       2.06808236
C      -16.80374582      -1.14163996       3.40598493
Br     -18.45027090      -1.82120202       4.03615156
C      -15.73085130      -1.00056928       4.28136965
C      -14.51313140      -0.49791780       3.81009396
H      -11.08985954       1.57925421      -0.30890576
H      -10.69736303       0.24078612       0.79674963
H       -5.16934056       2.45250649       2.67704529
H       -2.55586738       0.79722222      -0.46741712
H        0.62766361       1.13501444       2.40448011
H       -0.79129688       2.56413749       3.82075074
H      -12.39276414       0.41633014       2.78910473
H      -15.38404546      -0.02278065       0.54859338
H      -17.49798188      -0.89351764       1.37487467
H      -15.82970094      -1.27697146       5.32733702
H      -13.68923795      -0.39641429       4.51209127
O       -3.35475188     -11.63389431       6.02453987
C       -2.34139400     -11.37304199       5.37891961
C       -1.93936238      -9.92958704       5.13887234
S       -0.22543953      -9.62007539       5.66475223
C       -0.12766246      -7.92879334       5.23525057
N       -1.16040100      -7.12219630       5.33763793
N       -0.88366726      -5.86549991       4.83560202
C        0.34124335      -5.78705487       4.37853947
S        1.27721499      -7.20312282       4.57397423
N        0.97934149      -4.77009732       3.72344054
C        0.34906800      -3.58135074       3.44225847
O       -0.78016612      -3.26815935       3.79756213
C        1.09332013      -2.62423313       2.56778909
C        0.29537721      -1.79586065       1.75414062
C        0.88120149      -0.88120149       0.88120149
C        2.26515572      -0.76952356       0.80482991
C        3.06683935      -1.57590118       1.61432511
C        2.48940174      -2.49968188       2.49698389
Cl       3.58661151      -3.41441783       3.47143250
N       -1.51936882     -12.29480835       4.75004024
C       -1.68786379     -13.69340653       4.69043864
C       -2.80044613     -14.36711987       5.20079062
C       -2.90260969     -15.75875620       5.09417538
C       -1.88915624     -16.48270279       4.47454424
Br      -2.02766502     -18.36159924       4.33128622
C       -0.77464931     -15.82787933       3.95842164
C       -0.67681315     -14.43629949       4.06582122
H       -2.62395629      -9.28466617       5.69949811
H       -2.04936458      -9.71378991       4.07047345
H        1.92841311      -4.94425312       3.42622611
H       -0.79087310      -1.87381276       1.80273281
H        2.72845767      -0.05668782       0.12668544
H        4.14890151      -1.47192078       1.55536282
H       -0.66909429     -11.92659643       4.34069686
H       -3.61658090     -13.84058139       5.68585770
H       -3.77849229     -16.25894398       5.49888723
H        0.02033002     -16.38686553       3.47287096
H        0.20281020     -13.94659267       3.65551206
