133
Properties=species:S:1:pos:R:3 pbc="F F F"
C        0.00000000       0.00000000       0.00000000
C        0.87172479       0.87172479      -0.87172479
C        0.58748959       2.18126142      -1.16155416
C        1.60168916       2.75585103      -1.98525108
C        2.59767619       1.85082870      -2.31204043
S        2.30128940       0.32025564      -1.59040949
C        3.77888784       2.10170555      -3.13376869
O        4.21254742       3.23784217      -3.29782386
N        4.28608889       0.96795576      -3.74381606
C        5.37574168       0.87048243      -4.62901431
C        6.32064350       1.87661936      -4.81805236
C        7.36943701       1.68848782      -5.72015036
C        7.46352062       0.50433968      -6.45380554
C        6.51011756      -0.50559003      -6.29272515
C        5.49068373      -0.32469306      -5.35504890
N        6.62425594      -1.64088837      -7.12122785
C        5.71014735      -2.67098893      -7.28399637
O        4.65962418      -2.77358650      -6.65707402
C        6.05781578      -3.63667175      -8.32500465
C        5.21527222      -4.58738057      -8.87934311
C        5.85339879      -5.36880136      -9.88754250
C        7.16234577      -4.99314959     -10.04382747
Br       8.33065679      -5.79881515     -11.26590428
S        7.62343865      -3.72242570      -9.02433593
H       -0.28741178       2.71083446      -0.80476846
H        1.59911271       3.78083730      -2.34052433
H        3.73588594       0.12621041      -3.61782584
H        6.27831163       2.81037827      -4.26513655
H        8.10802404       2.47461992      -5.85774046
H        8.27829234       0.39738938      -7.16526603
H        4.75112961      -1.10065499      -5.19030569
H        7.41979602      -1.66262412      -7.74764325
H        4.17913104      -4.70079067      -8.57755325
H        5.36910422      -6.15604585     -10.45259840
C       -0.87172479      -0.87172479      -0.87172479
C       -1.24134035      -0.53947878      -2.14948604
C       -2.04310948      -1.56528259      -2.73439920
C       -2.27469349      -2.61932704      -1.86652478
S       -1.49122987      -2.36110232      -0.35962234
C       -3.04990843      -3.82732169      -2.13713197
O       -3.25042459      -4.21319012      -3.28459873
N       -3.57608953      -4.41931138      -1.00245981
C       -4.40130624      -5.55609482      -0.91783735
C       -4.59533607      -6.45951452      -1.96046463
C       -5.43477210      -7.56079580      -1.78250729
C       -6.10171367      -7.74943236      -0.57051981
C       -5.93579113      -6.83914087       0.47767932
C       -5.05907306      -5.76568446       0.30371795
N       -6.69886221      -7.05024725       1.64451403
C       -6.85305403      -6.19663186       2.72653110
O       -6.27338255      -5.12173994       2.85201079
C       -7.82542610      -6.64329540       3.72257283
C       -8.37079426      -5.87717089       4.74073039
C       -9.30574689      -6.60296916       5.53657612
C       -9.41733174      -7.89842771       5.10273580
Br     -10.53869511      -9.16517064       5.90611983
S       -8.44275964      -8.24483171       3.76224248
H       -0.95483407       0.37710762      -2.65046468
H       -2.44985417      -1.53112659      -3.73949357
H       -3.43419388      -3.90485648      -0.14087183
H       -4.09341946      -6.34384889      -2.91655811
H       -5.57627295      -8.26645531      -2.59765616
H       -6.76646535      -8.60362233      -0.47086008
H       -4.89105142      -5.05718371       1.10745481
H       -7.28405362      -7.87678894       1.65602741
H       -8.11420206      -4.83371602       4.89202446
H       -9.85276815      -6.18682839       6.37393977
C       -0.87172479       0.87172479       0.87172479
C       -1.43412853       0.44806335       2.04811329
C       -2.18355817       1.49489069       2.66434240
C       -2.18478511       2.65999748       1.91576272
S       -1.25152753       2.47507875       0.48534824
C       -2.84809836       3.91817598       2.24808775
O       -3.14719550       4.19563138       3.40538657
N       -3.15771827       4.69473154       1.14541090
C       -3.83352657       5.92869031       1.11302154
C       -4.05521706       6.72720262       2.23289554
C       -4.73725004       7.93838193       2.10244322
C       -5.22093382       8.34370808       0.85702394
C       -5.02701510       7.54258496      -0.27234738
C       -4.30462103       6.35458342      -0.13816488
N       -5.60863433       7.97712600      -1.48116489
C       -5.71967070       7.27597074      -2.67248664
O       -5.25252439       6.15741728      -2.86682997
C       -6.50280759       7.94999524      -3.70665415
C       -6.99770899       7.37722431      -4.86769854
C       -7.73800109       8.29932541      -5.66518657
C       -7.75794911       9.54189272      -5.08681817
Br      -8.62062214      11.02154083      -5.84441704
S       -6.92745289       9.61086630      -3.61297031
H       -1.31719383      -0.54748610       2.45848341
H       -2.71491989       1.40019647       3.60535797
H       -2.96677809       4.26597862       0.24716548
H       -3.69381856       6.44317488       3.21683301
H       -4.90059516       8.56074754       2.97904173
H       -5.76823687       9.28057332       0.79213756
H       -4.11688853       5.72480177      -1.00090998
H       -6.09170423       8.86687041      -1.45375949
H       -6.84226758       6.33323945      -5.11961341
H       -8.21821525       8.05155770      -6.60411618
C        0.87172479      -0.87172479       0.87172479
C        0.41750002      -1.98883232       1.52397282
C        1.47069057      -2.62277414       2.24932656
C        2.67325083      -1.94424581       2.14304867
S        2.51324034      -0.55892040       1.13979378
C        3.94770276      -2.31220715       2.75445217
O        4.17809332      -3.46549960       3.10462054
N        4.80032911      -1.24119373       2.95633787
C        6.07139601      -1.24351469       3.56032772
C        6.81873095      -2.39403972       3.80254454
C        8.07283896      -2.29694586       4.40829037
C        8.57338187      -1.05250967       4.79577431
C        7.82558031       0.10915930       4.58083167
C        6.59202500       0.00478330       3.93379786
N        8.35892677       1.32079167       5.06646033
C        7.73190074       2.55515081       5.14640487
O        6.60045058       2.78823059       4.73089171
C        8.50608471       3.58984039       5.82990436
C        8.02768095       4.80763950       6.28719331
C        9.03365777       5.58963510       6.92811725
C       10.24163998       4.94199084       6.91337451
Br      11.80830078       5.65853924       7.64798439
S       10.18117372       3.42324150       6.16741665
H       -0.60419624      -2.34644458       1.48594279
H        1.35550232      -3.52608851       2.83888349
H        4.41118443      -0.33139074       2.73734701
H        6.46056687      -3.37816579       3.51509379
H        8.65456121      -3.19794050       4.58788272
H        9.54262219      -1.01222701       5.28609855
H        6.00073210       0.89106055       3.73110876
H        9.27239479       1.26828917       5.50070953
H        6.99184024       5.11089162       6.17494501
H        8.86616372       6.56633344       7.36582649
