154
Properties=species:S:1:pos:R:3 pbc="F F F"
C        1.78162882       1.78162882      -1.78162882
C        1.49739362       3.09116544      -2.07145818
C        2.51159318       3.66575506      -2.89515511
C        3.50758021       2.76073272      -3.22194445
S        3.21119342       1.23015967      -2.50031351
C        4.68879187       3.01160957      -4.04367272
O        5.12245144       4.14774619      -4.20772788
N        5.19599292       1.87785979      -4.65372008
C        6.28564570       1.78038645      -5.53891833
C        7.23054752       2.78652339      -5.72795638
C        8.27934104       2.59839184      -6.63005438
C        8.37342464       1.41424371      -7.36370957
C        7.42002159       0.40431399      -7.20262917
C        6.40058775       0.58521096      -6.26495293
N        7.53415997      -0.73098435      -8.03113188
C        6.62005138      -1.76108491      -8.19390040
O        5.56952820      -1.86368248      -7.56697804
C        6.96771980      -2.72676773      -9.23490868
C        6.12517625      -3.67747654      -9.78924713
C        6.76330281      -4.45889734     -10.79744652
C        8.07224980      -4.08324557     -10.95373150
Br       9.24056082      -4.88891112     -12.17580830
S        8.53334267      -2.81252168      -9.93423995
H        0.62249224       3.62073848      -1.71467248
H        2.50901673       4.69074132      -3.25042835
H        4.64578996       1.03611444      -4.52772986
H        7.18821565       3.72028229      -5.17504058
H        9.01792807       3.38452395      -6.76764448
H        9.18819636       1.30729340      -8.07517006
H        5.66103364      -0.19075097      -6.10020972
H        8.32970005      -0.75272010      -8.65754727
H        5.08903506      -3.79088665      -9.48745728
H        6.27900825      -5.24614183     -11.36250242
C       -1.78162882      -1.78162882      -1.78162882
C       -2.21406140      -1.41579117      -3.03016466
C       -2.99867676      -2.44953074      -3.62429585
C       -3.15525068      -3.54428467      -2.79072204
S       -2.32303891      -3.31287077      -1.30575692
C       -3.89392853      -4.77087949      -3.07926614
O       -4.12494424      -5.12033003      -4.23265125
N       -4.35169948      -5.42614960      -1.94972371
C       -5.12892610      -6.59718116      -1.87884323
C       -5.32955512      -7.46714158      -2.94833060
C       -6.11863099      -8.60685077      -2.78230550
C       -6.72927371      -8.86791493      -1.55418928
C       -6.55675051      -7.99242101      -0.47779324
C       -5.72922875      -6.87916771      -0.64235518
N       -7.26431105      -8.27801200       0.70801555
C       -7.40791213      -7.47310017       1.82814543
O       -6.86516015      -6.38162670       1.97396308
C       -8.32224378      -7.99567803       2.84206106
C       -8.85562303      -7.29120842       3.90988461
C       -9.72988317      -8.08337327       4.71140444
C       -9.80907629      -9.36473887       4.23107943
Br     -10.84852226     -10.70471208       5.02577635
S       -8.87595055      -9.62079391       2.84168351
H       -1.98284535      -0.47010886      -3.50494899
H       -3.44598789      -2.39320958      -4.61098893
H       -4.19546542      -4.93972403      -1.07444481
H       -4.87074916      -7.29525074      -3.91753863
H       -6.26533165      -9.28594752      -3.61881733
H       -7.35646610      -9.75098851      -1.46320521
H       -5.55660875      -6.19574624       0.18186261
H       -7.81661636      -9.12695869       0.70904784
H       -8.63323648      -6.24492848       4.09255926
H      -10.25873070      -7.72152293       5.58488478
C       -1.78162882       1.78162882       1.78162882
C       -2.48456301       1.31372193       2.86173230
C       -3.19642755       2.36948663       3.50658916
C       -3.02945512       3.58894602       2.87185624
S       -1.98665482       3.44025077       1.51476101
C       -3.61164422       4.87047492       3.26195502
O       -3.99214186       5.07533638       4.41044728
N       -3.75073672       5.76307682       2.21375924
C       -4.31356204       7.05265984       2.23872860
C       -4.56961714       7.77044619       3.40496396
C       -5.13145765       9.04632194       3.33000768
C       -5.46147676       9.59887660       2.09102456
C       -5.23231423       8.88188016       0.91277036
C       -4.62881307       7.62494030       0.99699827
N       -5.66040912       9.46939461      -0.29549623
C       -5.71956568       8.88509957      -1.55179837
O       -5.33294314       7.74857716      -1.80869652
C       -6.34346822       9.71407472      -2.58168220
C       -6.77536978       9.29016843      -3.82859138
C       -7.35767605      10.34121463      -4.59703869
C       -7.32573254      11.52674682      -3.90974364
Br      -7.98587479      13.13888626      -4.59730306
S       -6.63261202      11.39321198      -2.37076305
H       -2.49101197       0.28042507       3.18646616
H       -3.81885125       2.24501923       4.38631592
H       -3.51438464       5.39617943       1.29907019
H       -4.32638720       7.37173670       4.38541463
H       -5.32201031       9.60457490       4.24351128
H       -5.91899225      10.58456156       2.06710602
H       -4.41597943       7.05589445       0.09861851
H       -6.06675226      10.39455167      -0.22677672
H       -6.68632218       8.26140391      -4.16212039
H       -7.76804297      10.21954195      -5.59221608
C        1.78162882      -1.78162882       1.78162882
C        1.34981305      -2.94432597       2.36587822
C        2.39839382      -3.56467467       3.10943485
C        3.57346631      -2.83225996       3.08453111
S        3.39515968      -1.41224188       2.13426504
C        4.83602882      -3.17283723       3.73520811
O        5.10183274      -4.32967756       4.04641522
N        5.63167794      -2.07685346       4.01904138
C        6.87515061      -2.05228137       4.67751851
C        7.66135649      -3.17992929       4.90374151
C        8.88347148      -3.05691441       5.56740136
C        9.31229584      -1.81073967       6.02834241
C        8.52399099      -0.67318309       5.82979068
C        7.32444306      -0.80079473       5.12551385
N        8.98287608       0.53732459       6.38875602
C        8.29956050       1.73958532       6.49289169
O        7.17742384       1.94294849       6.03834842
C        8.99828686       2.77491525       7.25248914
C        8.44820559       3.95035005       7.73909129
C        9.39115781       4.74504725       8.45574144
C       10.62591235       4.14994981       8.46677318
Br      12.12745055       4.89875090       9.29875835
S       10.66342160       2.66414868       7.65578803
H        0.34726642      -3.34250036       2.26813642
H        2.29825304      -4.49699385       3.65493952
H        5.21257566      -1.17546603       3.82159257
H        7.35904281      -4.16468041       4.55981530
H        9.49606430      -3.93969949       5.73433271
H       10.25740258      -1.75133142       6.56192582
H        6.70391167       0.06791043       4.93449114
H        9.87873297       0.50423472       6.86002897
H        7.40569715       4.21448067       7.59438921
H        9.16280014       5.69373457       8.92630327
C       -0.00445707       0.01189536      -1.78238275
H       -0.66409135       0.67374010      -2.43557963
H        0.65740317      -0.63156657      -2.45157240
C       -0.90989263      -0.90692880      -0.91072765
C        0.90977584       0.90977584      -0.90977584
C       -0.00465871       1.77757030       0.00794375
H       -0.66225468       2.44313916      -0.64384735
H        0.64322798       2.43503045       0.67728295
C       -1.78241447       0.00034974      -0.00472694
H       -2.45427497      -0.65498947       0.64260836
H       -2.43311707       0.67328779      -0.65473579
C       -0.91132561       0.90220522       0.91563759
C       -0.01476271      -0.02253852       1.78660255
H       -0.67934791      -0.69751639       2.42135241
H        0.63392994       0.61504881       2.47327442
C        0.01484550      -1.77751727      -0.01636693
H        0.67870853      -2.42144646      -0.68295456
H       -0.62264859      -2.45592969       0.64226336
C        1.78714474       0.01002794       0.00389507
H        2.44202412       0.67113390       0.66197326
H        2.45385902      -0.65136977      -0.64189061
C        0.91606151      -0.90478549       0.90901405
