141
Properties=species:S:1:pos:R:3 pbc="F F F"
C        0.00000000       0.00000000       0.00000000
C        0.87172479       0.87172479      -0.87172479
C        0.58748959       2.18126142      -1.16155416
C        1.60168916       2.75585103      -1.98525108
C        2.59767619       1.85082870      -2.31204043
S        2.30128940       0.32025564      -1.59040949
C        3.77888784       2.10170555      -3.13376869
O        4.21254742       3.23784217      -3.29782386
N        4.28608889       0.96795576      -3.74381606
C        5.37574168       0.87048243      -4.62901431
C        6.32064350       1.87661936      -4.81805236
C        7.36943701       1.68848782      -5.72015036
C        7.46352062       0.50433968      -6.45380554
C        6.51011756      -0.50559003      -6.29272515
C        5.49068373      -0.32469306      -5.35504890
N        6.62425594      -1.64088837      -7.12122785
C        5.71014735      -2.67098893      -7.28399637
O        4.65962418      -2.77358650      -6.65707402
C        6.05781578      -3.63667175      -8.32500465
C        5.21527222      -4.58738057      -8.87934311
C        5.85339879      -5.36880136      -9.88754250
C        7.16234577      -4.99314959     -10.04382747
S        7.62343865      -3.72242570      -9.02433593
H       -0.28741178       2.71083446      -0.80476846
H        1.59911271       3.78083730      -2.34052433
H        3.73588594       0.12621041      -3.61782584
H        6.27831163       2.81037827      -4.26513655
H        8.10802404       2.47461992      -5.85774046
H        8.27829234       0.39738938      -7.16526603
H        4.75112961      -1.10065499      -5.19030569
H        7.41979602      -1.66262412      -7.74764325
H        4.17913104      -4.70079067      -8.57755325
H        5.36910422      -6.15604585     -10.45259840
C        8.06064480      -5.61261527     -10.98346630
C        8.81297023      -6.13141778     -11.77041382
Br      10.02941683      -6.97027756     -13.04284141
C       -0.87172479      -0.87172479      -0.87172479
C       -1.20561123      -0.56023211      -2.16446183
C       -2.01718029      -1.58105235      -2.74455863
C       -2.29140773      -2.60998498      -1.85915260
S       -1.53564520      -2.33524465      -0.34106467
C       -3.08743700      -3.80642697      -2.12049811
O       -3.27130747      -4.21348236      -3.26342361
N       -3.65159663      -4.36106380      -0.98520028
C       -4.50380953      -5.47724869      -0.89418020
C       -4.69513055      -6.39938638      -1.92079829
C       -5.56280916      -7.47767686      -1.73758917
C       -6.26029525      -7.62432911      -0.53704149
C       -6.09703567      -6.69458012       0.49436310
C       -5.19280650      -5.64483029       0.31659722
N       -6.89011639      -6.86259308       1.64811404
C       -7.04882976      -5.98169729       2.70737225
O       -6.44804883      -4.91725599       2.82219312
C       -8.05264773      -6.38438915       3.69088820
C       -8.60290672      -5.58377926       4.67945123
C       -9.57119645      -6.27078882       5.46984535
C       -9.70230159      -7.57290372       5.06218166
S       -8.70653552      -7.97067595       3.75186260
H       -0.88764051       0.33834773      -2.67889836
H       -2.40086804      -1.56055946      -3.75904683
H       -3.51714569      -3.83062106      -0.13215543
H       -4.16985124      -6.31629225      -2.86768296
H       -5.70218255      -8.19819490      -2.54000697
H       -6.94610282      -8.46124870      -0.43359623
H       -5.02661078      -4.92231168       1.10814214
H       -7.49384457      -7.67560722       1.66463665
H       -8.32631918      -4.54307927       4.81350483
H      -10.12699886      -5.82401597       6.28535806
C      -10.59953829      -8.51357601       5.68161847
C      -11.35097402      -9.30138905       6.20039680
Br     -12.56598205     -10.57521610       7.03921747
C       -0.87172479       0.87172479       0.87172479
C       -1.45760178       0.43931986       2.03338352
C       -2.20072133       1.48802603       2.65404391
C       -2.17387052       2.66381919       1.92285560
S       -1.22233697       2.48599107       0.50362649
C       -2.82360644       3.92669747       2.26405817
O       -3.13572361       4.19163858       3.42085125
N       -3.10550812       4.72375398       1.16859862
C       -3.76269067       5.96792299       1.14462476
C       -3.98926301       6.75320851       2.27284371
C       -4.65154952       7.97612561       2.15040006
C       -5.11077968       8.40669187       0.90419429
C       -4.91187061       7.61934577      -0.23396369
C       -4.20894883       6.41894953      -0.10685879
N       -5.46913071       8.08003647      -1.44457175
C       -5.57273551       7.39805471      -2.64763542
O       -5.11912999       6.27566245      -2.85168074
C       -6.33056173       8.09861260      -3.68302566
C       -6.81652406       7.55022830      -4.85951759
C       -7.53139960       8.49472240      -5.65398208
C       -7.54177926       9.72887972      -5.05763533
S       -6.73227429       9.76404453      -3.57096994
H       -1.36128975      -0.56373184       2.43063323
H       -2.74727988       1.38749123       3.58570322
H       -2.90756647       4.30537020       0.26698552
H       -3.64665146       6.44953905       3.25763595
H       -4.81875730       8.58798753       3.03363959
H       -5.64333750       9.35240325       0.84520699
H       -4.01767219       5.79911007      -0.97600194
H       -5.93952287       8.97634002      -1.41104775
H       -6.67261608       6.50784266      -5.12456511
H       -8.00122495       8.26781362      -6.60338180
C       -8.17971499      10.88463241      -5.63285157
C       -8.71398616      11.85257529      -6.11459517
Br      -9.57785746      13.41765705      -6.89353384
C        0.87172479      -0.87172479       0.87172479
C        0.42442400      -2.00445235       1.50142882
C        1.47623042      -2.63375663       2.23280422
C        2.67027804      -1.93675607       2.15351121
S        2.50459023      -0.53953231       1.16783198
C        3.94108684      -2.29535000       2.77792524
O        4.18307301      -3.45017926       3.11496117
N        4.77524056      -1.21535468       3.00726548
C        6.03750231      -1.20832432       3.62941179
C        6.79782043      -2.35148928       3.86600551
C        8.04166949      -2.24533062       4.49107508
C        8.51867718      -0.99962267       4.90336599
C        7.75734461       0.15428437       4.69419244
C        6.53473537       0.04173183       4.02803602
N        8.26622782       1.36624709       5.20461469
C        7.62041051       2.59029617       5.29304045
O        6.49173531       2.81324487       4.86462126
C        8.36982091       3.62592206       6.00224983
C        7.86747464       4.83008874       6.46984886
C        8.85287587       5.61697794       7.13624199
C       10.07015124       4.98683554       7.12970795
S       10.04217371       3.47828572       6.36146089
H       -0.59137067      -2.37595459       1.44360722
H        1.36570692      -3.54701624       2.80775117
H        4.37617775      -0.30810976       2.79563468
H        6.45799121      -3.33635943       3.55947581
H        8.63370312      -3.14046618       4.66621513
H        9.48017470      -0.95264659       5.40812646
H        5.93367313       0.92234984       3.82945702
H        9.17409770       1.32047278       5.65119022
H        6.82907105       5.12018404       6.34700661
H        8.66512745       6.58479112       7.58532044
C       11.25852956       5.54663822       7.71960448
C       12.25379641       6.01547296       8.21364283
Br      13.86305873       6.77353909       9.01246104
