193
Properties=species:S:1:pos:R:3 pbc="F F F"
C        0.00000000       0.00000000       0.00000000
C        0.87985035       0.87985035      -0.87985035
C        0.66745435       2.24807452      -0.93428508
C        1.46469409       3.05534488      -1.76359284
C        2.50196215       2.52000430      -2.54530702
C        2.71777358       1.13610292      -2.42590348
C        1.90473303       0.31983115      -1.62357733
N        3.31184056       3.34122260      -3.42692659
C        3.38665281       4.74657679      -3.50460859
C        2.64413328       5.75346875      -2.69819357
N        3.06068284       7.08498645      -3.08499975
C        2.69291736       8.19559164      -2.36678595
O        2.07413102       8.11576844      -1.30943992
C        3.07008928       9.52605237      -2.92051559
C        2.89330008      10.65917721      -2.11225535
C        3.21257181      11.93246898      -2.59490241
C        3.70752402      12.08672683      -3.88941728
C        3.88453428      10.96765250      -4.70096247
C        3.56582398       9.69962984      -4.21391617
F        3.73860298       8.65382854      -5.03739691
N        4.26069477       5.10455071      -4.42964505
N        4.76644982       3.99405833      -5.00451668
C        4.19817295       2.95369471      -4.44449179
S        4.42584721       1.37807624      -5.14362766
C        3.45140260       1.57532932      -6.66755294
C        1.98547568       1.78748591      -6.37389200
C        1.16519877       0.70673374      -6.01683134
C       -0.16814363       0.91853903      -5.66250349
C       -0.68593253       2.21209997      -5.66174632
Br      -2.48262949       2.50184367      -5.15261569
C        0.11179273       3.29502882      -6.02381281
C        1.44291898       3.08241706      -6.38353578
H       -0.12297409       2.70719730      -0.34324368
H        1.18803569       4.09765966      -1.75514919
H        3.53411155       0.62025576      -2.91354591
H        2.09559899      -0.74994770      -1.58580387
H        2.82676871       5.63237355      -1.62660191
H        1.57290422       5.71283990      -2.91575386
H        3.54223859       7.17836727      -3.97709609
H        2.50366944      10.55434068      -1.10105218
H        3.07134026      12.80363929      -1.95894280
H        3.95223702      13.07724537      -4.26570725
H        4.26552663      11.07274651      -5.71284101
H        3.57220700       0.66886938      -7.27138428
H        3.85597269       2.40034820      -7.26491975
H        1.56597880      -0.30498022      -5.99535174
H       -0.78869035       0.07212175      -5.38036923
H       -0.28828712       4.30536594      -6.02384421
H        2.06539929       3.93728505      -6.64740703
C       -0.87985035      -0.87985035      -0.87985035
C       -1.63368581      -1.89790002      -0.31822811
C       -2.42693239      -2.72322542      -1.13347400
C       -2.49955830      -2.54290967      -2.52480550
C       -1.75918728      -1.46991299      -3.05067971
C       -0.94041820      -0.66187384      -2.24584948
N       -3.29309321      -3.40823001      -3.37866652
C       -4.25517895      -4.37078279      -3.01187645
C       -4.70181273      -4.75030090      -1.64368197
N       -5.73908214      -5.75614603      -1.73544088
C       -6.47504859      -6.13867529      -0.64157107
O       -6.36224415      -5.58594097       0.44884575
C       -7.42975522      -7.26837569      -0.81852632
C       -8.33791535      -7.54212678       0.21530948
C       -9.23960406      -8.60561365       0.10527451
C       -9.24059866      -9.40750852      -1.03556095
C       -8.34087042      -9.14523099      -2.06704783
C       -7.44453940      -8.08212815      -1.95270243
F       -6.58693054      -7.87801129      -2.96488661
N       -4.76771117      -4.93528847      -4.09189088
N       -4.17146891      -4.41114695      -5.18240898
C       -3.28529036      -3.53408126      -4.77698783
S       -2.15198676      -2.87592475      -5.91963960
C       -1.12694462      -4.34938952      -6.21795073
C       -0.39050177      -4.78323723      -4.97311460
C        0.75806568      -4.09877503      -4.54805451
C        1.38625102      -4.44769470      -3.35145521
C        0.86718034      -5.48098933      -2.57410478
Br       1.70021954      -5.93290689      -0.93914252
C       -0.26615755      -6.17775962      -2.98671718
C       -0.89053071      -5.83264336      -4.18569776
H       -1.61095827      -2.07248061       0.75597199
H       -2.94137639      -3.50374190      -0.59572624
H       -1.79576314      -1.17990490      -4.09224518
H       -0.36592828       0.13918294      -2.70470981
H       -5.09976134      -3.89343934      -1.09254348
H       -3.88898620      -5.22556397      -1.08694781
H       -5.82465737      -6.25333415      -2.61971042
H       -8.34559508      -6.92715807       1.11369087
H       -9.93913070      -8.80813549       0.91334384
H       -9.93933028     -10.23658765      -1.11927171
H       -8.32738639      -9.76370139      -2.96002636
H       -0.40096944      -4.10873432      -7.00275690
H       -1.74792835      -5.16258392      -6.61072837
H        1.15947160      -3.27728177      -5.13854015
H        2.27038605      -3.90268591      -3.03150077
H       -0.67425987      -6.98378465      -2.38287852
H       -1.78768216      -6.37044194      -4.49196727
C       -0.87985035       0.87985035       0.87985035
C       -0.32353742       1.92162080       1.60465572
C       -1.13228200       2.71789984       2.43344997
C       -2.51619591       2.50444397       2.54663359
C       -3.05071585       1.47007443       1.75898970
C       -2.24345224       0.65116352       0.95352576
N       -3.35507204       3.30281527       3.42210244
C       -3.04045870       4.49848176       4.09889772
C       -1.75542544       5.24954515       4.09082501
N       -1.88988825       6.44618156       4.89459923
C       -0.93007588       7.42764872       4.89757036
O        0.04460114       7.39201333       4.15192719
C       -1.10687065       8.55663214       5.85315444
C       -0.26086911       9.66958370       5.73427984
C       -0.37360876      10.74515445       6.62117999
C       -1.32890305      10.71809385       7.63667123
C       -2.17244522       9.61612238       7.76458164
C       -2.05664920       8.54653853       6.87618225
F       -2.88048571       7.50092739       7.04841533
N       -4.08902497       4.92248420       4.78338135
N       -5.10054232       4.04538547       4.61909705
C       -4.67461401       3.07669846       3.84504698
S       -5.64428032       1.64568254       3.65758825
C       -5.45156808       0.92536731       5.31734947
C       -4.02110753       0.52988758       5.59585849
C       -3.48605291      -0.64600501       5.04871595
C       -2.14013177      -0.96422111       5.23698823
C       -1.32341590      -0.10680223       5.97130009
Br       0.50577413      -0.52264993       6.20025394
C       -1.84107514       1.05929326       6.53026595
C       -3.18779595       1.37424654       6.34682934
H        0.74397949       2.12606033       1.54538606
H       -0.58916398       3.47442320       2.97725736
H       -4.11013955       1.25985288       1.69792079
H       -2.70148275      -0.15360073       0.38357313
H       -1.46207752       5.54443281       3.07923383
H       -0.96230601       4.66869294       4.57049903
H       -2.67042929       6.47993442       5.54733825
H        0.49248306       9.70257237       4.94897298
H        0.28785094      11.60269458       6.51907871
H       -1.41389810      11.55291092       8.32838062
H       -2.91874370       9.57925989       8.55311055
H       -6.09169235       0.03830648       5.38246183
H       -5.81954910       1.62777606       6.07391548
H       -4.11134020      -1.31201245       4.45702257
H       -1.73840693      -1.87456132       4.79995502
H       -1.20711755       1.73075383       7.10305166
H       -3.58043968       2.29794534       6.77170635
C        0.87985035      -0.87985035       0.87985035
C        1.59686524      -0.32511444       1.92783426
C        2.42571954      -1.13370083       2.72421144
C        2.54668993      -2.51599076       2.50459278
C        1.76669574      -3.04927545       1.46380879
C        0.96128832      -2.24194627       0.64490694
N        3.42235460      -3.35449155       3.30314359
C        4.09179264      -3.04243359       4.50361196
C        4.07380259      -1.76113486       5.26085815
N        4.87240315      -1.89753054       6.46073536
C        4.86592482      -0.94251563       7.44685450
O        4.11571634       0.02869141       7.41231445
C        5.81686672      -1.12017498       8.57961554
C        5.68846242      -0.28020147       9.69606875
C        6.57066881      -0.39388010      10.77539428
C        7.59092885      -1.34408859      10.74865069
C        7.72830342      -2.18161248       9.64323333
C        6.84455383      -2.06491406       8.56990209
F        7.02588019      -2.88279255       7.52115570
N        4.77931771      -4.08972018       4.92585263
N        4.62423219      -5.09773144       4.04306122
C        3.85282594      -4.67084512       3.07268838
S        3.67705209      -5.63441597       1.63608305
C        5.33933140      -5.43013383       0.92481963
C        5.61277417      -3.99642498       0.53765444
C        5.06874376      -3.45830203      -0.63828194
C        5.25198926      -2.10994579      -0.94903616
C        5.97813495      -1.29386739      -0.08408857
Br       6.20017699       0.53842025      -0.48992687
C        6.53395109      -1.81449015       1.08219311
C        6.35556089      -3.16360664       1.38970430
H        1.53139520       0.74109179       2.13716349
H        2.96319026      -0.59164653       3.48600775
H        1.71181864      -4.10794480       1.24814978
H        0.39749204      -2.69880664      -0.16484352
H        3.05937202      -1.47414500       5.55222714
H        4.55241570      -0.96287065       4.68621162
H        5.52877152      -2.67504814       6.49388228
H        4.89933792       0.46915850       9.72888287
H        6.46117818       0.26288369      11.63562786
H        8.27898280      -1.42979633      11.58641051
H        8.52063428      -2.92388439       9.60659547
H        5.41187324      -6.06559825       0.03498917
H        6.09426426      -5.79785979       1.62911659
H        4.48334961      -4.08319786      -1.31019715
H        4.81742667      -1.70591057      -1.85953661
H        7.10036923      -1.18104265       1.75951116
H        6.77785839      -3.55868517       2.31354780
