190
Properties=species:S:1:pos:R:3 pbc="F F F"
C        1.79157089       1.79157089      -1.79157089
C        3.17547931       1.74027670      -1.65607377
C        3.98303887       2.53997380      -2.46920968
C        3.41726617       3.42142541      -3.40530241
C        2.01767084       3.44246219      -3.53665047
C        1.20800581       2.63448771      -2.73298416
C        4.25705138       4.26919868      -4.33949946
S        5.76628390       4.95230777      -3.59015440
C        6.36714563       5.92606872      -4.90551124
C        6.46282546       7.29471030      -4.86805782
N        6.99521028       7.72270007      -6.05911499
C        7.20938271       9.11934734      -6.44660076
C        7.59611429      10.01997806      -5.29605247
C        8.94178606      10.16958246      -4.92763105
C        9.29189593      10.96106240      -3.83089900
C        8.29785062      11.59719328      -3.09010584
Br       8.76919116      12.63797134      -1.58416258
C        6.95783636      11.46381902      -3.44477639
C        6.60905688      10.68542781      -4.54992915
C        7.22454996       6.62983705      -6.88350289
C        7.72652022       6.54694179      -8.19479892
C        7.86232844       5.28201288      -8.77547195
C        7.51365761       4.13227973      -8.07648702
C        7.01361823       4.22051085      -6.77448541
C        6.85265881       5.48325571      -6.16526669
H        3.63905222       1.08120141      -0.92688899
H        5.06273507       2.46649044      -2.35476814
H        1.54465734       4.08843723      -4.27414279
H        0.12851914       2.66834899      -2.85289382
H        3.65822661       5.11749971      -4.69199644
H        4.51670672       3.65773219      -5.20908087
H        6.20100775       7.98506365      -4.07810110
H        6.27986476       9.45958972      -6.91762558
H        7.99776457       9.14868612      -7.20654890
H        9.72642423       9.66094779      -5.48473832
H       10.33840651      11.06366414      -3.55556398
H        6.17859547      11.94884516      -2.86260011
H        5.55708158      10.57427879      -4.80687845
H        8.01022821       7.43245750      -8.75598735
H        8.25161319       5.19665260      -9.78752527
H        7.63119232       3.15691013      -8.54250205
H        6.75093852       3.31305400      -6.23668128
C       -1.79157089      -1.79157089      -1.79157089
C       -1.25229673      -2.39723164      -2.92230142
C       -2.05634002      -3.21172265      -3.72415969
C       -3.41457431      -3.40633980      -3.42307988
C       -3.93225327      -2.79880694      -2.26572329
C       -3.12697911      -1.99344847      -1.45505010
C       -4.30847052      -4.31968351      -4.23759549
S       -4.01178490      -4.26630483      -6.03065634
C       -5.27379057      -5.32686941      -6.59806561
C       -6.32746230      -4.92022420      -7.37790708
N       -7.10839545      -6.01549558      -7.65313430
C       -8.36243714      -6.00223559      -8.41065808
C       -8.38673587      -4.99136200      -9.53404694
C       -7.90350450      -5.32776495     -10.80773012
C       -7.87843849      -4.37561852     -11.82980032
C       -8.32520285      -3.07956481     -11.58038207
Br      -8.25664036      -1.78168988     -12.95299484
C       -8.81280563      -2.72990663     -10.32371951
C       -8.85225259      -3.68544434      -9.30671691
C       -6.57335026      -7.13446283      -7.03007682
C       -7.01298470      -8.46978189      -6.98549435
C       -6.24531571      -9.39863780      -6.27585976
C       -5.07457477      -9.01646300      -5.63138659
C       -4.64333208      -7.68794846      -5.67733396
C       -5.40263305      -6.72407895      -6.37446922
H       -0.20936917      -2.24862339      -3.18915007
H       -1.60424934      -3.68760254      -4.59214177
H       -4.97175553      -2.95340456      -1.98207727
H       -3.54985512      -1.53437623      -0.56553060
H       -5.35555140      -4.03787985      -4.07429149
H       -4.17454775      -5.34094241      -3.86802963
H       -6.56580057      -3.93751690      -7.76085502
H       -9.16283197      -5.80658504      -7.68766305
H       -8.52513862      -7.00330901      -8.82455197
H       -7.53165882      -6.33055902     -11.00989251
H       -7.49721370      -4.65050547     -12.80991546
H       -9.15130243      -1.71697558     -10.12176272
H       -9.21900497      -3.39564307      -8.32359079
H       -7.92150558      -8.79017936      -7.48698812
H       -6.56682398     -10.43681088      -6.23215620
H       -4.48788232      -9.75387373      -5.08884845
H       -3.72242235      -7.40381361      -5.17443784
C       -1.79157089       1.79157089       1.79157089
C       -1.27574007       2.32944139       2.96664832
C       -2.07928109       3.14400168       3.76893959
C       -3.41524901       3.40601740       3.42272759
C       -3.90849920       2.86644134       2.22184296
C       -3.10300645       2.06129615       1.41117508
C       -4.30511461       4.32246332       4.23817158
S       -4.08472029       4.18618909       6.03783670
C       -5.32612794       5.27450272       6.59809493
C       -6.42619533       4.88104146       7.31835678
N       -7.17393240       5.99576646       7.60732648
C       -8.45759647       6.00416808       8.31356626
C       -8.56793915       4.95158657       9.39261910
C       -8.12456583       5.21729693      10.69713681
C       -8.17914095       4.22531795      11.67939843
C       -8.66609338       2.95958121      11.35947514
Br      -8.70530023       1.60680889      12.67921596
C       -9.11505391       2.68014490      10.07123296
C       -9.07491078       3.67590069       9.09360236
C       -6.56997160       7.11551993       7.05239838
C       -6.95434254       8.46849934       7.04541905
C       -6.12208270       9.39230667       6.40542390
C       -4.94184199       8.98807390       5.79250848
C       -4.56563663       7.64217899       5.80079888
C       -5.39041056       6.68356447       6.42720619
H       -0.25134300       2.12767152       3.26812812
H       -1.64481562       3.56625876       4.67291927
H       -4.92854966       3.07471318       1.90397452
H       -3.50675592       1.65546883       0.48753720
H       -5.35490637       4.09060379       4.02221259
H       -4.11590113       5.35114748       3.91647118
H       -6.71868270       3.89460984       7.65087996
H       -9.23469647       5.87027764       7.55210595
H       -8.59752525       6.99396214       8.76151221
H       -7.72204537       6.19519573      10.95486925
H       -7.82797019       4.44539479      12.68426964
H       -9.48468834       1.69074672       9.81460568
H       -9.41209769       3.44045777       8.08568338
H       -7.86935127       8.80592156       7.52340023
H       -6.40028648      10.44373293       6.39177165
H       -4.30469081       9.72158933       5.30432435
H       -3.63676995       7.34050659       5.32339726
C        1.79157089      -1.79157089       1.79157089
C        3.16602563      -1.57771634       1.82808781
C        3.97205611      -2.37817841       2.64198783
C        3.41903304      -3.41994718       3.40501377
C        2.02592979      -3.60510532       3.36574839
C        1.21582857      -2.79782362       2.56182549
C        4.24973565      -4.27886259       4.33715129
S        5.90061491      -4.70356521       3.70456595
C        6.46995367      -5.75764194       4.97112998
C        6.73139402      -7.09410483       4.80009473
N        7.18134232      -7.60188186       5.99380115
C        7.51792939      -9.00400885       6.25339257
C        8.12924732      -9.71495829       5.06793921
C        9.51463788      -9.67574852       4.84861317
C       10.07108417     -10.28924844       3.72352472
C        9.24427945     -10.93463926       2.80623102
Br       9.99358414     -11.73261891       1.26512203
C        7.86786831     -10.98763205       3.01093141
C        7.31339930     -10.38791455       4.14309998
C        7.18996503      -6.59684356       6.95108132
C        7.53626288      -6.61783932       8.31415872
C        7.45796190      -5.42385509       9.03799628
C        7.05111456      -4.24267061       8.42863919
C        6.70637054      -4.22784405       7.07439991
C        6.76261650      -5.41894544       6.31961927
H        3.62265471      -0.79097717       1.23351076
H        5.04131883      -2.17725827       2.66541655
H        1.55753801      -4.38090499       3.96879436
H        0.14147252      -2.96025870       2.54803072
H        3.72215992      -5.22191163       4.52365120
H        4.34081709      -3.75120886       5.29149384
H        6.63911104      -7.70934711       3.91571434
H        6.59079335      -9.49477624       6.57151047
H        8.21893021      -9.03969386       7.09437553
H       10.16942743      -9.15659745       5.54608547
H       11.14565829     -10.24651990       3.56545643
H        7.21825935     -11.47991794       2.29186345
H        6.23436655     -10.42059642       4.28327586
H        7.86215659      -7.52868669       8.80782977
H        7.72452873      -5.41875336      10.09250897
H        7.00144696      -3.32281904       9.00633849
H        6.39613699      -3.29588711       6.60864969
C       -0.00445707       0.01189536      -1.78238275
H       -0.66409135       0.67374010      -2.43557963
H        0.65740317      -0.63156657      -2.45157240
C       -0.90989263      -0.90692880      -0.91072765
C        0.90977584       0.90977584      -0.90977584
C       -0.00465871       1.77757030       0.00794375
H       -0.66225468       2.44313916      -0.64384735
H        0.64322798       2.43503045       0.67728295
C       -1.78241447       0.00034974      -0.00472694
H       -2.45427497      -0.65498947       0.64260836
H       -2.43311707       0.67328779      -0.65473579
C       -0.91132561       0.90220522       0.91563759
C       -0.01476271      -0.02253852       1.78660255
H       -0.67934791      -0.69751639       2.42135241
H        0.63392994       0.61504881       2.47327442
C        0.01484550      -1.77751727      -0.01636693
H        0.67870853      -2.42144646      -0.68295456
H       -0.62264859      -2.45592969       0.64226336
C        1.78714474       0.01002794       0.00389507
H        2.44202412       0.67113390       0.66197326
H        2.45385902      -0.65136977      -0.64189061
C        0.91606151      -0.90478549       0.90901405
