169
Properties=species:S:1:pos:R:3 pbc="F F F"
C        0.00000000       0.00000000       0.00000000
C        0.88166686       0.88166686      -0.88166686
C        2.26557529       0.83037267      -0.74616975
C        3.07313485       1.63006978      -1.55930566
C        2.50736215       2.51152139      -2.49539838
C        1.10776681       2.53255817      -2.62674645
C        0.29810179       1.72458369      -1.82308013
C        3.34714735       3.35929465      -3.42959544
S        4.85637988       4.04240375      -2.68025038
C        5.45724161       5.01616469      -3.99560722
C        5.55292143       6.38480628      -3.95815380
N        6.08530625       6.81279604      -5.14921096
C        6.29947868       8.20944332      -5.53669674
C        6.68621026       9.11007403      -4.38614845
C        8.03188204       9.25967843      -4.01772703
C        8.38199191      10.05115837      -2.92099497
C        7.38794660      10.68728925      -2.18020181
Br       7.85928713      11.72806731      -0.67425856
C        6.04793233      10.55391500      -2.53487236
C        5.69915285       9.77552379      -3.64002513
C        6.31464594       5.71993303      -5.97359887
C        6.81661620       5.63703777      -7.28489489
C        6.95242442       4.37210885      -7.86556793
C        6.60375359       3.22237571      -7.16658300
C        6.10371421       3.31060683      -5.86458139
C        5.94275479       4.57335168      -5.25536267
H        2.72914820       0.17129739      -0.01698497
H        4.15283105       1.55658641      -1.44486412
H        0.63475332       3.17853320      -3.36423877
H       -0.78138488       1.75844496      -1.94298980
H        2.74832258       4.20759568      -3.78209241
H        3.60680270       2.74782817      -4.29917685
H        5.29110372       7.07515962      -3.16819707
H        5.36996074       8.54968569      -6.00772156
H        7.08786055       8.23878210      -6.29664488
H        8.81652021       8.75104377      -4.57483429
H        9.42850248      10.15376011      -2.64565996
H        5.26869144      11.03894114      -1.95269609
H        4.64717756       9.66437477      -3.89697443
H        7.10032418       6.52255347      -7.84608333
H        7.34170917       4.28674857      -8.87762124
H        6.72128829       2.24700611      -7.63259802
H        5.84103449       2.40314998      -5.32677726
C       -0.88166686      -0.88166686      -0.88166686
C       -0.79365893      -0.78170852      -2.26675026
C       -1.59349861      -1.59503082      -3.07398085
C       -2.51122307      -2.49530516      -2.50775368
C       -2.56926760      -2.59145916      -1.10634467
C       -1.76144044      -1.78774847      -0.29657670
C       -3.36132611      -3.42925310      -3.34545824
S       -3.98908019      -2.70119094      -4.88876287
C       -4.98028595      -4.00712310      -5.48160447
C       -6.34487553      -3.93903241      -5.61197356
N       -6.78921473      -5.13221541      -6.12588313
C       -8.18944158      -5.49106442      -6.36511274
C       -9.05175290      -4.32903347      -6.80164637
C       -9.15968671      -3.99049668      -8.15910410
C       -9.91512684      -2.88397811      -8.55504031
C      -10.55654667      -2.10369736      -7.59519363
Br     -11.54809213      -0.58519399      -8.12832688
C      -10.46435678      -2.42823975      -6.24412317
C       -9.72217368      -3.54289107      -5.84963701
C       -5.71185496      -5.98815299      -6.30816989
C       -5.64932122      -7.31307871      -6.77614893
C       -4.39622883      -7.92728614      -6.86658624
C       -3.23831166      -7.24784011      -6.50656053
C       -3.30636131      -5.93212223      -6.04041888
C       -4.55717199      -5.28881695      -5.92548020
H       -0.10576038      -0.08032551      -2.73134467
H       -1.49117608      -1.50912860      -4.15397690
H       -3.24450695      -3.30122742      -0.63179092
H       -1.82429469      -1.88007682       0.78432163
H       -4.23228666      -3.74626276      -2.75946126
H       -2.76546145      -4.31949066      -3.56885560
H       -7.02160102      -3.12641498      -5.38644442
H       -8.56355733      -5.93061358      -5.43319708
H       -8.21853044      -6.26934536      -7.13541173
H       -8.64619797      -4.57894665      -8.91725365
H       -9.98560662      -2.63220892      -9.61010701
H      -10.95350096      -1.81543888      -5.49138882
H       -9.64282897      -3.77635664      -4.78934115
H       -6.54133893      -7.85957978      -7.06804228
H       -4.32655122      -8.95042090      -7.22910686
H       -2.27221148      -7.74001902      -6.58866192
H       -2.39248636      -5.41004093      -5.76843444
C       -0.88166686       0.88166686       0.88166686
C       -0.37925863       1.38531839       2.07754068
C       -1.18255397       2.19989917       2.88005715
C       -2.50568195       2.49596769       2.51263227
C       -2.98502662       1.99066657       1.29137823
C       -2.17942140       1.18562466       0.48071955
C       -3.39349890       3.41388995       3.32864860
S       -3.21261392       3.23721454       5.12920554
C       -4.44319177       4.33920201       5.68661973
C       -5.56535990       3.95393922       6.37658239
N       -6.29640887       5.07768217       6.67322222
C       -7.59378247       5.09814231       7.35369395
C       -7.74711651       4.02667710       8.40863913
C       -7.32521420       4.25717028       9.72690302
C       -7.41961875       3.24707994      10.68744657
C       -7.92514249       1.99818146      10.33211372
Br      -8.01827619       0.62038762      11.62294919
C       -8.35323589       1.75375661       9.02972719
C       -8.27327640       2.76782397       8.07360140
C       -5.65900287       6.19575318       6.15342179
C       -6.01603820       7.55615812       6.16635254
C       -5.15260725       8.47540759       5.56208637
C       -3.96842769       8.05952161       4.96476299
C       -3.61943977       6.70633860       4.95312406
C       -4.47580635       5.75241501       5.54324778
H        0.63454153       1.15671818       2.39525391
H       -0.75826036       2.59506085       3.80096036
H       -3.99401783       2.22600497       0.95750249
H       -2.57228236       0.80665255      -0.45888504
H       -4.44309243       3.20784638       3.08707186
H       -3.17724665       4.44472514       3.03183593
H       -5.88422028       2.96722888       6.68301126
H       -8.35771456       4.99536830       6.57428512
H       -7.72300906       6.08143483       7.81884364
H       -6.90857178       5.22131253      10.01251397
H       -7.08468332       3.43982611      11.70341312
H       -8.73725801       0.77742702       8.74564364
H       -8.59447859       2.55949374       7.05455443
H       -6.93367758       7.90254890       6.63273450
H       -5.40940858       9.53235082       5.56431959
H       -3.30692399       8.78950151       4.50446692
H       -2.68724552       6.39538890       4.48832730
C        0.88166686      -0.88166686       0.88166686
C        1.89325615      -0.30522606       1.64363550
C        2.69418656      -1.11051095       2.45781278
C        2.51384514      -2.50307629       2.49736049
C        1.47388646      -3.06034798       1.73283698
C        0.66327029      -2.25555521       0.92694010
C        3.32732225      -3.40611625       3.40259894
S        5.07920172      -2.94414195       3.55569034
C        5.67123737      -4.24904593       4.54873022
C        6.58606611      -5.18172406       4.12809134
N        6.83739984      -6.03992778       5.16998564
C        7.71443626      -7.21245431       5.11872817
C        8.92168868      -7.03366236       4.22708171
C       10.10494798      -6.47289317       4.73144635
C       11.20155043      -6.26024457       3.89235025
C       11.11661048      -6.59611987       2.54270731
Br      12.58757174      -6.27404390       1.39999737
C        9.95185526      -7.15835259       2.02651184
C        8.86140258      -7.38512957       2.86816961
C        6.06509116      -5.67804703       6.26503966
C        5.94367757      -6.25105929       7.54381200
C        5.07959955      -5.64755058       8.46295107
C        4.35877374      -4.50781639       8.12612216
C        4.48176047      -3.94367486       6.85346710
C        5.33579429      -4.53652935       5.89914550
H        2.06699383       0.76721536       1.61765209
H        3.46591059      -0.63133291       3.05703808
H        1.28261958      -4.13151745       1.76338826
H       -0.13423661      -2.70941815       0.34486833
H        3.29564523      -4.43029564       3.01206981
H        2.85511020      -3.40893504       4.38976246
H        7.07846794      -5.28500196       3.17099052
H        7.09573425      -8.05158356       4.78005018
H        8.04997421      -7.43609194       6.13722137
H       10.17715121      -6.18625200       5.77899507
H       12.10969387      -5.82103908       4.29718960
H        9.87744498      -7.41091882       0.97196486
H        7.95018345      -7.80877871       2.44956459
H        6.50224903      -7.13777307       7.82893889
H        4.97421783      -6.07376225       9.45809890
H        3.69570606      -4.04935115       8.85583521
H        3.91727242      -3.04843415       6.60525516
