66
Properties=species:S:1:pos:R:3 pbc="F F F"
C        2.83683590       4.98759494      -3.08341173
C        2.63880306       3.55877830      -2.74428661
N        1.68637100       3.13215421      -1.85197993
H        1.03732557       3.71585521      -1.34411243
C        1.77194046       1.77194046      -1.77194046
C        2.78449959       1.42019087      -2.62826075
Br       3.42252333      -0.31367333      -2.99460209
N        3.31637751       2.53669606      -3.22715118
H        2.13909234       5.63354111      -2.54144109
H        2.68526249       5.14445692      -4.15574620
H        3.85564529       5.29676846      -2.83060035
C       -2.86451685      -4.99072632      -3.05259940
C       -2.65064326      -3.56011791      -2.73110680
N       -1.70498075      -3.13425710      -1.83126729
H       -1.07180332      -3.71975071      -1.30573917
C       -1.77194046      -1.77194046      -1.77194046
C       -2.76693802      -1.41820703      -2.64780615
Br      -3.37443131       0.31910695      -3.04812773
N       -3.30634046      -2.53556322      -3.23832107
H       -2.18404234      -5.63865385      -2.49137834
H       -2.69991395      -5.16528323      -4.12026843
H       -3.89121671      -5.28159589      -2.81020151
C       -4.77968088       2.42822044       3.69994125
C       -3.46984948       2.46403039       3.00798810
N       -2.99232757       1.41156837       2.26660919
H       -3.45679309       0.52818832       2.11231180
C       -1.77194046       1.77194046       1.77194046
C       -1.55215412       3.04384821       2.23694887
Br      -0.04768691       4.13270805       1.92305713
N       -2.61213785       3.46464398       3.00344291
H       -5.29648133       1.47666556       3.54092764
H       -5.42291536       3.23251952       3.33003074
H       -4.64052036       2.56591464       4.77657911
C        4.97846446      -2.78125200       3.14812611
C        3.55487473      -2.61503918       2.77195405
N        3.12599336      -1.64886538       1.89564639
H        3.70443675      -0.96781299       1.42504346
C        1.77194046      -1.77194046       1.77194046
C        1.42601056      -2.81992829       2.58701236
Br      -0.29774510      -3.51949018       2.88170701
N        2.54003183      -3.33668483       3.20350807
H        5.61898319      -2.05046757       2.64462377
H        5.32483107      -3.78333272       2.87730183
H        5.09956093      -2.65509783       4.22835535
C       -0.00445707       0.01189536      -1.78238275
H       -0.66409135       0.67374010      -2.43557963
H        0.65740317      -0.63156657      -2.45157240
C       -0.90989263      -0.90692880      -0.91072765
C        0.90977584       0.90977584      -0.90977584
C       -0.00465871       1.77757030       0.00794375
H       -0.66225468       2.44313916      -0.64384735
H        0.64322798       2.43503045       0.67728295
C       -1.78241447       0.00034974      -0.00472694
H       -2.45427497      -0.65498947       0.64260836
H       -2.43311707       0.67328779      -0.65473579
C       -0.91132561       0.90220522       0.91563759
C       -0.01476271      -0.02253852       1.78660255
H       -0.67934791      -0.69751639       2.42135241
H        0.63392994       0.61504881       2.47327442
C        0.01484550      -1.77751727      -0.01636693
H        0.67870853      -2.42144646      -0.68295456
H       -0.62264859      -2.45592969       0.64226336
C        1.78714474       0.01002794       0.00389507
H        2.44202412       0.67113390       0.66197326
H        2.45385902      -0.65136977      -0.64189061
C        0.91606151      -0.90478549       0.90901405
