133
Properties=species:S:1:pos:R:3 pbc="F F F"
C        0.00000000       0.00000000       0.00000000
C        0.88175908       0.88175908      -0.88175908
C        0.44141866       1.24866093      -2.15159857
C        1.24442937       2.06052074      -2.95495930
C        2.48751284       2.51643169      -2.48960399
C        2.91550722       2.13626921      -1.20866871
C        2.11694285       1.31763337      -0.40801304
C        3.33109999       3.44281762      -3.33281618
S        3.09623928       5.18321338      -2.87867446
C        1.49068772       5.40549084      -3.47642486
N        1.21884681       5.18105288      -4.72536442
C       -0.20461018       5.52946301      -4.87903848
C       -0.74654032       5.66734544      -3.47180620
N        0.43369994       5.79493775      -2.65852891
C        0.44741761       6.15618859      -1.30219311
O        1.48165850       6.48364133      -0.72253755
C       -0.82586073       6.24396704      -0.59162681
C       -1.12830964       6.88718949       0.59770295
C       -2.50120235       6.65635784       0.85848968
C       -2.95296116       5.86418682      -0.16948821
Br      -4.69623005       5.22863097      -0.35339556
O       -1.94790663       5.60520190      -1.04549229
H       -0.52219294       0.91098215      -2.52330817
H        0.89184950       2.34407645      -3.94511693
H        3.87146091       2.48691647      -0.82360917
H        2.46421104       1.03483429       0.58215215
H        3.12900374       3.29138308      -4.39921203
H        4.38919144       3.19363253      -3.19092452
H       -0.28754991       6.47170222      -5.43147856
H       -0.73765475       4.75447684      -5.43836873
H       -1.27919010       4.75395801      -3.18566664
H       -1.40789886       6.53262554      -3.36471540
H       -0.42922219       7.46184974       1.19201206
H       -3.08151656       7.01892810       1.69584225
C       -0.88175908      -0.88175908      -0.88175908
C       -0.40149074      -1.32974682      -2.11044061
C       -1.20491422      -2.14160373      -2.91339147
C       -2.48881798      -2.51646811      -2.48826244
C       -2.95663815      -2.05528239      -1.24852459
C       -2.15719752      -1.23659026      -0.44880149
C       -3.33643603      -3.44264991      -3.32764785
S       -3.20746034      -5.16798009      -2.78268669
C       -1.58865655      -5.49295482      -3.29099206
N       -1.24881098      -5.34212835      -4.53432478
C        0.16166437      -5.76300856      -4.60254712
C        0.63064034      -5.85741975      -3.16583191
N       -0.59073020      -5.89074288      -2.40569351
C       -0.68462880      -6.18480155      -1.03636897
O       -1.75921602      -6.43561000      -0.49301136
C        0.54868698      -6.29680000      -0.26162011
C        0.76429701      -6.89490812       0.96943420
C        2.13324002      -6.71541950       1.28551367
C        2.66990499      -5.99574142       0.24512256
Br       4.44856814      -5.45111527       0.11675065
O        1.72015749      -5.73333983      -0.68960522
H        0.59350862      -1.05539032      -2.45021567
H       -0.82109832      -2.48881830      -3.87112627
H       -3.94524256      -2.34228513      -0.89445886
H       -2.53575069      -0.89037580       0.50923331
H       -3.07815584      -3.35259018      -4.38885283
H       -4.38663153      -3.13823310      -3.24888385
H        0.22428208      -6.73374459      -5.10616835
H        0.75693493      -5.04151729      -5.17060847
H        1.19314155      -4.95683669      -2.89673941
H        1.24361957      -6.74613865      -2.98692301
H        0.01145003      -7.40715201       1.55508650
H        2.65596673      -7.06341253       2.16587651
C       -0.88175908       0.88175908       0.88175908
C       -2.16674950       1.21554141       0.45938725
C       -2.97539731       2.01584380       1.26866831
C       -2.50661849       2.47923845       2.50769158
C       -1.20962776       2.13417276       2.91664462
C       -0.39734109       1.34096196       2.10428621
C       -3.40031659       3.29526356       3.41115365
S       -4.20912056       2.27489433       4.67411224
C       -5.30576600       1.40660076       3.66023666
N       -6.16022897       2.04447792       2.92055722
C       -6.95304555       0.99573984       2.25510592
C       -6.20032991      -0.29713335       2.48941475
N       -5.30144597       0.01759279       3.56812784
C       -4.53794215      -0.91707099       4.28492816
O       -3.97745893      -0.63152847       5.34190692
C       -4.49891883      -2.29726726       3.80808156
C       -4.13188249      -3.45155590       4.48085032
C       -4.25645602      -4.52477464       3.56498444
C       -4.66540377      -3.96376257       2.37907267
Br      -4.98689046      -4.90006313       0.79896915
O       -4.80818525      -2.61994280       2.51454511
H       -2.54763124       0.85781258      -0.49334644
H       -3.97887090       2.27029120       0.93188078
H       -0.82953127       2.47397092       3.87848436
H        0.60392403       1.08242704       2.43839018
H       -4.14444507       3.84829675       2.82685704
H       -2.79699533       4.05475106       3.92200210
H       -7.95242551       0.96098059       2.70222476
H       -7.06108824       1.20725603       1.18684655
H       -5.61390057      -0.55409546       1.60062944
H       -6.86788614      -1.12521061       2.74676656
H       -3.82188814      -3.49840002       5.51712737
H       -4.06437982      -5.57276100       3.74995047
C        0.88175908      -0.88175908       0.88175908
C        1.95452648      -1.56909021       0.31806147
C        2.76484451      -2.36963780       1.12542710
C        2.51187095      -2.48022673       2.50145084
C        1.42665115      -1.78184076       3.05195324
C        0.61085796      -0.98781775       2.24391355
C        3.42198973      -3.29782592       3.38691814
S        4.66822081      -2.27350121       4.21640510
C        5.64691590      -1.87638181       2.84930571
N        6.18035715      -2.81530804       2.12959892
C        6.98021012      -2.11306382       1.11061737
C        6.54962555      -0.66296631       1.18001946
N        5.87608970      -0.56334608       2.44773082
C        5.47879882       0.63476180       3.06176229
O        5.12944517       0.68176834       4.24016056
C        5.58611754       1.87682315       2.30043874
C        5.59836370       3.18730257       2.75011579
C        5.70671245       4.01832992       1.60828329
C        5.72702476       3.17208751       0.52577662
Br       5.84844177       3.70603722      -1.25660808
O        5.64840015       1.87889429       0.93328170
H        2.16884096      -1.48732797      -0.74407155
H        3.60215308      -2.90171839       0.67717141
H        1.21842881      -1.84495964       4.11859810
H       -0.22419692      -0.45281713       2.68827297
H        3.90054696      -4.10218734       2.81686454
H        2.82138073      -3.79449212       4.15787565
H        8.04386471      -2.22409399       1.34767215
H        6.80320016      -2.53532973       0.11666094
H        5.83451060      -0.44707124       0.37885271
H        7.39803360       0.02534656       1.11675505
H        5.54479424       3.49185776       3.78767901
H        5.75654109       5.09827160       1.58329980
