145
Properties=species:S:1:pos:R:3 pbc="F F F"
C        0.00000000       0.00000000       0.00000000
C        0.88220842       0.88220842      -0.88220842
C        2.15352683       0.44607707      -1.24200889
C        2.95223715       1.25053040      -2.05720223
C        2.49541935       2.49812782      -2.51374643
C        1.20890095       2.91767755      -2.13954501
C        0.40504092       2.11449028      -1.32662334
C        3.33214512       3.36313065      -3.45736827
H        3.03029389       4.41120547      -3.32998468
C        3.17244199       2.93334842      -4.90956297
C        4.43529460       2.15866500      -5.15798701
N        5.39376791       2.45982840      -4.25559108
N        4.76698369       3.26243328      -3.21537002
C        5.45447863       4.02244510      -2.27198617
O        4.84597276       4.84327116      -1.57379420
C        6.89666341       3.83615291      -2.13344287
C        7.76471983       2.80046442      -2.44545076
C        9.06729466       3.21275639      -2.08100910
C        8.92667656       4.46987236      -1.54779209
Br      10.33035327       5.52114464      -0.90357193
O        7.62497913       4.84990652      -1.55061115
C        4.72500828       1.19670691      -6.16806100
C        5.66742237       0.17993267      -6.16208375
C        5.66170938      -0.60773995      -7.34771298
C        4.71952288      -0.16530372      -8.24536874
S        3.83856874       1.17178974      -7.64617809
H        2.53769416      -0.51236365      -0.90699111
H        3.94224174       0.90481254      -2.35318181
H        0.83104649       3.87559000      -2.48756551
H       -0.58719409       2.45743209      -1.05134373
H        3.15849457       3.81045396      -5.56879121
H        2.26769486       2.34684549      -5.09556225
H        7.47255324       1.86308683      -2.89806987
H        9.98517428       2.65763813      -2.20190817
H        6.32336718       0.01749765      -5.31661275
H        6.31745131      -1.44810947      -7.52647642
H        4.49743131      -0.56227837      -9.22377040
C       -0.88220842      -0.88220842      -0.88220842
C       -0.55135562      -2.22061078      -1.06964638
C       -1.36620575      -3.02594597      -1.86781806
C       -2.51148738      -2.50393212      -2.49187409
C       -2.82707501      -1.15116862      -2.28787988
C       -2.01629755      -0.34247210      -1.48738489
C       -3.44830464      -3.38641835      -3.31792105
H       -3.97549584      -2.75265785      -4.04333034
C       -4.44228774      -4.13394459      -2.43912106
C       -3.85197346      -5.51427801      -2.38569514
N       -2.98375848      -5.72761840      -3.39781051
N       -2.75551222      -4.44397142      -4.04530336
C       -2.17324059      -4.27615759      -5.29951171
O       -2.22265881      -3.17610735      -5.86427196
C       -1.51735068      -5.41911271      -5.92979580
C       -0.96784247      -6.59696528      -5.44582725
C       -0.48010829      -7.32603959      -6.55491228
C       -0.73856277      -6.54907012      -7.65670813
Br      -0.32136804      -7.01703335      -9.41666844
O       -1.34080764      -5.38896630      -7.29572286
C       -4.07981999      -6.56214029      -1.44781592
C       -3.26198432      -7.63131888      -1.11613559
C       -3.81161853      -8.47774353      -0.11232035
C       -5.05062296      -8.04313370       0.29416875
S       -5.52793062      -6.61432037      -0.51428558
H        0.32625483      -2.65628350      -0.60229295
H       -1.11810850      -4.07815485      -2.00397274
H       -3.71286584      -0.72735795      -2.75397821
H       -2.28025947       0.70008924      -1.34141150
H       -5.42269674      -4.18582258      -2.92922042
H       -4.57402402      -3.68686256      -1.44921602
H       -0.94302690      -6.88628711      -4.40439594
H       -0.00729971      -8.29636729      -6.54105358
H       -2.29702502      -7.77589178      -1.58456078
H       -3.32128252      -9.35652831       0.28199257
H       -5.70117208      -8.48852876       1.03077749
C       -0.88220842       0.88220842       0.88220842
C       -2.26697843       0.77465342       0.79998093
C       -3.06929776       1.57497971       1.61569231
C       -2.50026029       2.49380454       2.51322877
C       -1.10083911       2.58469771       2.58058668
C       -0.29413240       1.78350278       1.76851937
C       -3.36241104       3.33269004       3.45754296
H       -2.80841351       4.24400445       3.71906608
C       -3.74295730       2.55936751       4.71302857
C       -5.16299698       2.16027105       4.42867858
N       -5.71604179       2.92800774       3.46513786
N       -4.64435595       3.72052590       2.87990514
C       -4.83045209       4.84261717       2.07584063
O       -3.87334945       5.58044377       1.80924491
C       -6.16926115       5.12992251       1.56707552
C       -7.30070575       4.35692234       1.35300692
C       -8.30798039       5.20894791       0.84413186
C       -7.73578793       6.45356944       0.75498364
Br      -8.60973676       7.99152392       0.15380915
O       -6.44331936       6.41837089       1.16380655
C       -5.94887294       1.12644139       5.01446187
C       -7.05046941       0.46472408       4.49424529
C       -7.57521000      -0.53481082       5.36128323
C       -6.86838874      -0.60672470       6.53792386
S       -5.57167792       0.50676345       6.57809520
H       -2.73963060       0.07512893       0.11756209
H       -4.15371966       1.48201423       1.56450220
H       -0.63803035       3.28268115       3.27349049
H        0.78557692       1.86856710       1.83859156
H       -3.72854227       3.22052201       5.58867546
H       -3.09095012       1.70422333       4.91492915
H       -7.37537584       3.29838495       1.55994915
H       -9.32057353       4.93968163       0.58446541
H       -7.44417364       0.69953372       3.51377023
H       -8.42604823      -1.15973210       5.12950214
H       -7.04274347      -1.26145414       7.37763402
C        0.88220842      -0.88220842       0.88220842
C        0.45825179      -2.16374412       1.21961687
C        1.27236614      -2.97056216       2.01704148
C        2.51031533      -2.50564736       2.49133090
C        2.91881131      -1.20985242       2.13745977
C        2.10880705      -0.40027143       1.33707606
C        3.44149766      -3.39791238       3.31323400
H        4.08499769      -2.75653339       3.92995296
C        4.28346640      -4.30548970       2.42639729
C        3.57631847      -5.62501953       2.55060862
N        2.79030845      -5.67111379       3.64776515
N        2.73198184      -4.32181756       4.19098759
C        2.28419047      -3.99569839       5.46902103
O        2.47821252      -2.86116527       5.92366033
C        1.59511672      -5.01593820       6.25520427
C        0.90581861      -6.17469279       5.93012361
C        0.46270752      -6.75939519       7.13895745
C        0.88640536      -5.91935487       8.13858078
Br       0.59538835      -6.19655387       9.96312761
O        1.54855433      -4.85441419       7.62252827
C        3.62735821      -6.76486254       1.69755544
C        2.69506821      -7.77817759       1.53619298
C        3.07629109      -8.75342655       0.57196476
C        4.30474800      -8.47088531       0.02395459
S        4.97354458      -7.02908222       0.65390977
H       -0.49237788      -2.55446665       0.87023285
H        0.94994554      -3.98011832       2.27017224
H        3.87643980      -0.83175966       2.48600253
H        2.44524714       0.59741996       1.07375455
H        5.29702334      -4.40605521       2.83466119
H        4.36056510      -3.95765118       1.39188632
H        0.76066667      -6.54737880       4.92566447
H       -0.08959012      -7.67964193       7.25466876
H        1.76870724      -7.79301950       2.09575084
H        2.47922378      -9.61335287       0.30324161
H        4.84460961      -9.03500665      -0.72069292
