174
Properties=species:S:1:pos:R:3 pbc="F F F"
C        1.79211244       1.79211244      -1.79211244
C        3.06343085       1.35598109      -2.15191291
C        3.86214117       2.16043443      -2.96710625
C        3.40532337       3.40803184      -3.42365046
C        2.11880497       3.82758157      -3.04944903
C        1.31494495       3.02439430      -2.23652737
C        4.24204914       4.27303467      -4.36727229
H        3.94019792       5.32110949      -4.23988870
C        4.08234602       3.84325244      -5.81946700
C        5.34519862       3.06856902      -6.06789104
N        6.30367193       3.36973243      -5.16549511
N        5.67688772       4.17233731      -4.12527404
C        6.36438265       4.93234912      -3.18189019
O        5.75587679       5.75317519      -2.48369823
C        7.80656744       4.74605693      -3.04334689
C        8.67462385       3.71036844      -3.35535478
C        9.97719869       4.12266042      -2.99091313
C        9.83658059       5.37977638      -2.45769612
O        8.53488316       5.75981054      -2.46051517
C        5.63491231       2.10661093      -7.07796503
C        6.57732639       1.08983669      -7.07198777
C        6.57161340       0.30216407      -8.25761700
C        5.62942690       0.74460031      -9.15527276
S        4.74847277       2.08169377      -8.55608211
H        3.44759819       0.39754037      -1.81689513
H        4.85214577       1.81471656      -3.26308584
H        1.74095051       4.78549402      -3.39746953
H        0.32270994       3.36733612      -1.96124775
H        4.06839860       4.72035798      -6.47869523
H        3.17759889       3.25674951      -6.00546627
H        8.38245727       2.77299086      -3.80797390
H       10.89507830       3.56754215      -3.11181219
H        7.23327120       0.92740168      -6.22651677
H        7.22735534      -0.53820545      -8.43638045
H        5.40733534       0.34762565     -10.13367443
C       10.91847700       6.19005392      -1.96115764
C       11.82456525       6.86866137      -1.54530667
Br      13.28963331       7.96591221      -0.87291082
C       -1.79211244      -1.79211244      -1.79211244
C       -1.48449601      -3.14023108      -1.94659776
C       -2.29948294      -3.94523624      -2.74496267
C       -3.42162500      -3.41344661      -3.40193405
C       -3.71401968      -2.05094065      -3.23087525
C       -2.90308214      -1.24244908      -2.43033540
C       -4.35952820      -4.29373747      -4.22909043
H       -4.85959791      -3.66439965      -4.97719855
C       -5.38532136      -5.00388287      -3.35586123
C       -4.82390997      -6.39418636      -3.26356236
N       -3.94044864      -6.64473064      -4.25372019
N       -3.67390087      -5.37902324      -4.92157496
C       -3.06389340      -5.24779779      -6.16693077
O       -3.08019828      -4.15851191      -6.75404001
C       -2.41876810      -6.41578496      -6.76141820
C       -1.90254156      -7.59427065      -6.24353486
C       -1.40782988      -8.35482218      -7.32812018
C       -1.62901823      -7.59513611      -8.44989875
O       -2.21489302      -6.41644857      -8.12386728
C       -5.09103679      -7.41839836      -2.31005312
C       -4.30142568      -8.49656462      -1.94116055
C       -4.88747627      -9.31178547      -0.93213273
C       -6.12527167      -8.84490379      -0.55912452
S       -6.55793778      -7.42346593      -1.40484493
H       -0.62511782      -3.58359794      -1.45331793
H       -2.06986846      -5.00462396      -2.85545575
H       -4.58183705      -1.61924557      -3.72283145
H       -3.14894077      -0.19219738      -2.31015566
H       -6.35676821      -5.04631360      -3.86437000
H       -5.52747993      -4.53458219      -2.37775255
H       -1.90395739      -7.86312485      -5.19633978
H       -0.95489684      -9.33376745      -7.28576836
H       -3.33054852      -8.66938625      -2.38725488
H       -4.42265488     -10.19195411      -0.51092135
H       -6.79892992      -9.26261999       0.17291448
C       -1.28819267      -7.98913595      -9.79235995
C       -1.00275127      -8.31911081     -10.91667120
Br      -0.54121667      -8.85265226     -12.73458741
C       -1.79211244       1.79211244       1.79211244
C       -3.16981663       1.59790489       1.80360334
C       -3.97121876       2.39908049       2.61938260
C       -3.40899162       3.40454789       3.42346615
C       -2.01652280       3.58208739       3.39722539
C       -1.21047956       2.78053491       2.58485215
C       -4.26482132       4.24868529       4.36884950
H       -3.75471486       5.20579888       4.54068237
C       -4.52109401       3.53466989       5.68930155
C       -5.92756091       3.03521695       5.51888082
N       -6.58378133       3.70681460       4.54830354
N       -5.60052089       4.52295723       3.85102094
C       -5.90400759       5.57931108       2.99530330
O       -5.01262294       6.35422130       2.62590596
C       -7.28596682       5.75439467       2.55560977
C       -8.37725461       4.90391658       2.45917588
C       -9.46442329       5.66121082       1.96513813
C       -8.97787869       6.92941935       1.76675504
O       -7.66384520       6.99647895       2.09488472
C       -6.61087562       1.99559843       6.21301422
C       -7.69752556       1.23850741       5.80311789
C       -8.10620388       0.26617792       6.75901268
C       -7.32792158       0.31029622       7.89108217
S       -6.10367146       1.49883264       7.78374454
H       -3.63708368       0.83014212       1.19480789
H       -5.04877732       2.23911944       2.64205141
H       -1.55834555       4.34839191       4.01717660
H       -0.13600276       2.93353261       2.58175845
H       -4.49651622       4.24925618       6.52167941
H       -3.80582331       2.73396335       5.90002801
H       -8.37286567       3.85792251       2.73263384
H      -10.47166590       5.31674862       1.78601812
H       -8.16249959       1.38752410       4.83716597
H       -8.92828845      -0.42129434       6.61853623
H       -7.41081306      -0.29951312       8.77733548
C       -9.75088686       8.04142833       1.27737338
C      -10.39828120       8.97273585       0.86751624
Br     -11.44506310      10.47858133       0.20481191
C        1.79211244      -1.79211244       1.79211244
C        1.45264341      -3.12652665       1.99215479
C        2.26743878      -3.93198767       2.79025541
C        3.42129971      -3.41398390       3.40172205
C        3.74548701      -2.06521820       3.18513036
C        2.93477175      -1.25644432       2.38465054
C        4.35768672      -4.29730529       4.22736410
H        4.89509887      -3.66212185       4.94397539
C        5.33934686      -5.05891334       3.34680526
C        4.73829314      -6.43510176       3.30826378
N        3.87618523      -6.63425618       4.32845806
N        3.66249490      -5.34409092       4.96791325
C        3.09100949      -5.16245844       6.22515404
O        3.15296258      -4.05860245       6.78118517
C        2.43134168      -6.29564992       6.86897966
C        1.86935409      -7.47291197       6.39808102
C        1.38456522      -8.18992226       7.51628475
C        1.65718038      -7.40667673       8.61019598
O        2.26537322      -6.25390861       8.23592704
C        4.95115709      -7.49167401       2.37665717
C        4.12282622      -8.55709346       2.05923118
C        4.65847365      -9.41517028       1.05775054
C        5.89759576      -8.99301606       0.63868815
S        6.39172794      -7.56182363       1.43269707
H        0.56827302      -3.55904297       1.53471770
H        2.01248226      -4.98123623       2.93622968
H        4.63793871      -1.64463460       3.64134076
H        3.20544526      -0.21703658       2.22881196
H        6.32301977      -5.11452718       3.82990486
H        5.46694185      -4.62028966       2.35258317
H        1.83448449      -7.76985245       5.35908508
H        0.90438982      -9.15672041       7.51332241
H        3.16038110      -8.69083612       2.53597244
H        4.15857997     -10.29315593       0.67379444
H        6.53918715      -9.44884271      -0.09939445
C        1.34319950      -7.75471970       9.97176937
C        1.08024051      -8.04620569      11.11208709
Br       0.65505807      -8.51751388      12.95588439
C       -0.00445707       0.01189536      -1.78238275
H       -0.66409135       0.67374010      -2.43557963
H        0.65740317      -0.63156657      -2.45157240
C       -0.90989263      -0.90692880      -0.91072765
C        0.90977584       0.90977584      -0.90977584
C       -0.00465871       1.77757030       0.00794375
H       -0.66225468       2.44313916      -0.64384735
H        0.64322798       2.43503045       0.67728295
C       -1.78241447       0.00034974      -0.00472694
H       -2.45427497      -0.65498947       0.64260836
H       -2.43311707       0.67328779      -0.65473579
C       -0.91132561       0.90220522       0.91563759
C       -0.01476271      -0.02253852       1.78660255
H       -0.67934791      -0.69751639       2.42135241
H        0.63392994       0.61504881       2.47327442
C        0.01484550      -1.77751727      -0.01636693
H        0.67870853      -2.42144646      -0.68295456
H       -0.62264859      -2.45592969       0.64226336
C        1.78714474       0.01002794       0.00389507
H        2.44202412       0.67113390       0.66197326
H        2.45385902      -0.65136977      -0.64189061
C        0.91606151      -0.90478549       0.90901405
