166
Properties=species:S:1:pos:R:3 pbc="F F F"
C        1.79211244       1.79211244      -1.79211244
C        3.06343085       1.35598109      -2.15191291
C        3.86214117       2.16043443      -2.96710625
C        3.40532337       3.40803184      -3.42365046
C        2.11880497       3.82758157      -3.04944903
C        1.31494495       3.02439430      -2.23652737
C        4.24204914       4.27303467      -4.36727229
H        3.94019792       5.32110949      -4.23988870
C        4.08234602       3.84325244      -5.81946700
C        5.34519862       3.06856902      -6.06789104
N        6.30367193       3.36973243      -5.16549511
N        5.67688772       4.17233731      -4.12527404
C        6.36438265       4.93234912      -3.18189019
O        5.75587679       5.75317519      -2.48369823
C        7.80656744       4.74605693      -3.04334689
C        8.67462385       3.71036844      -3.35535478
C        9.97719869       4.12266042      -2.99091313
C        9.83658059       5.37977638      -2.45769612
Br      11.24025729       6.43104866      -1.81347595
O        8.53488316       5.75981054      -2.46051517
C        5.63491231       2.10661093      -7.07796503
C        6.57732639       1.08983669      -7.07198777
C        6.57161340       0.30216407      -8.25761700
C        5.62942690       0.74460031      -9.15527276
S        4.74847277       2.08169377      -8.55608211
H        3.44759819       0.39754037      -1.81689513
H        4.85214577       1.81471656      -3.26308584
H        1.74095051       4.78549402      -3.39746953
H        0.32270994       3.36733612      -1.96124775
H        4.06839860       4.72035798      -6.47869523
H        3.17759889       3.25674951      -6.00546627
H        8.38245727       2.77299086      -3.80797390
H       10.89507830       3.56754215      -3.11181219
H        7.23327120       0.92740168      -6.22651677
H        7.22735534      -0.53820545      -8.43638045
H        5.40733534       0.34762565     -10.13367443
C       -1.79211244      -1.79211244      -1.79211244
C       -1.41782377      -3.10802802      -2.04547307
C       -2.23237292      -3.91401883      -2.84329010
C       -3.42089782      -3.41460153      -3.40150631
C       -3.77983498      -2.08437304      -3.13162755
C       -2.96938855      -1.27527815      -2.33119992
C       -4.35537562      -4.30142841      -4.22555208
H       -4.93510668      -3.66183620      -4.90425324
C       -5.28397538      -5.12130764      -3.33978244
C       -4.63938561      -6.47797586      -3.36429722
N       -3.80476156      -6.61738845      -4.41674946
N       -3.65207915      -5.30170922      -5.02071070
C       -3.12728330      -5.06267913      -6.28865953
O       -3.24147548      -3.94459196      -6.80668276
C       -2.45366943      -6.15343721      -6.98886462
C       -1.84039582      -7.32611351      -6.57383775
C       -1.36972266      -7.99194768      -7.72910189
C       -1.70167832      -7.18416032      -8.78821445
Br      -1.33748643      -7.56709049     -10.58020498
O       -2.33315259      -6.06378618      -8.35827010
C       -4.78912373      -7.56937713      -2.46098741
C       -3.91819892      -8.61696894      -2.20398300
C       -4.39433574      -9.52263834      -1.21442040
C       -5.63188935      -9.15384205      -0.74356856
S       -6.19568797      -7.71523478      -1.47532589
H       -0.50613985      -3.52591351      -1.62998033
H       -1.94966153      -4.94945986      -3.03082678
H       -4.69918064      -1.67870656      -3.54602687
H       -3.26717699      -0.25048128      -2.13363555
H       -6.28047155      -5.19345747      -3.79352280
H       -5.39312456      -4.71822244      -2.32846767
H       -1.76287340      -7.65402209      -5.54652653
H       -0.85979643      -8.94241703      -7.77221919
H       -2.96789096      -8.70474778      -2.71455091
H       -3.85522045     -10.39562646      -0.87468343
H       -6.23487822      -9.65286326      -0.00089393
C       -1.79211244       1.79211244       1.79211244
C       -3.17341855       1.62631165       1.77159466
C       -3.97512330       2.42719538       2.58736317
C       -3.40938190       3.40425582       3.42336794
C       -2.01335012       3.55338906       3.42909640
C       -1.20708447       2.75196323       2.61681891
C       -4.26730540       4.24657950       4.36847121
H       -3.74153881       5.18922651       4.57043079
C       -4.56534180       3.51136160       5.66836207
C       -5.97782653       3.04473441       5.45909774
N       -6.60001290       3.74936225       4.48952432
N       -5.58613857       4.55893951       3.82942098
C       -5.85030714       5.63851718       2.98979765
O       -4.93590396       6.40212525       2.65472099
C       -7.21901444       5.85110277       2.52585404
C       -8.32511501       5.02556243       2.38966963
C       -9.38620599       5.81510640       1.88945984
C       -8.86999952       7.07672403       1.72732954
Br      -9.83003482       8.55254539       1.10220169
O       -7.56195935       7.10985329       2.08339623
C       -6.69635447       2.00562177       6.11751203
C       -7.78942491       1.27969877       5.67002717
C       -8.23749166       0.29683811       6.59706471
C       -7.48210777       0.30181505       7.74537716
S       -6.23201168       1.46665333       7.68758363
H       -3.64346070       0.88092146       1.13765153
H       -5.05594642       2.28917797       2.58482377
H       -1.55265480       4.29728350       4.07397577
H       -0.12988900       2.88268657       2.63871824
H       -4.54351699       4.20823372       6.51570110
H       -3.87100104       2.69188607       5.87692756
H       -8.34763824       3.97436457       2.64141922
H      -10.39630672       5.49530587       1.68282006
H       -8.23115378       1.45790746       4.69812841
H       -9.07027914      -0.37045092       6.42570213
H       -7.59571930      -0.32401708       8.61693319
C        1.79211244      -1.79211244       1.79211244
C        1.35089298      -3.05891191       2.16151997
C        2.16482704      -3.86604241       2.95881240
C        3.41994685      -3.41590553       3.40115329
C        3.84566442      -2.13486500       3.01530616
C        3.03583431      -1.32510523       2.21492708
C        4.34978431      -4.31021330       4.22235849
H        5.01663509      -3.66978310       4.81477792
C        5.15782715      -5.24986773       3.33737057
C        4.42877690      -6.55324882       3.49963296
N        3.66294460      -6.56408435       4.61187052
N        3.63996935      -5.20407233       5.13045739
C        3.22257009      -4.84586557       6.41018630
O        3.44619121      -3.70696023       6.83959876
C        2.52966884      -5.83811238       7.22819004
C        1.81294712      -6.98945481       6.93794515
C        1.38200531      -7.54312299       8.16564393
C        1.84006410      -6.69283308       9.14115590
Br       1.57852143      -6.93055097      10.97570951
O        2.51199070      -5.65037597       8.59284219
C        4.44249518      -7.70949625       2.66749684
C        3.48866487      -8.70781314       2.54267284
C        3.83340306      -9.70783547       1.59015595
C        5.05630651      -9.45881036       1.01418311
S        5.76355750      -8.01847016       1.60422099
H        0.38673242      -3.43799924       1.83730203
H        1.82856351      -4.86444375       3.23694090
H        4.81657091      -1.76855103       3.33879212
H        3.38569929      -0.33901894       1.92657558
H        6.17688468      -5.36199305       3.72857407
H        5.22178521      -4.92281872       2.29521075
H        1.64192261      -7.37791433       5.94358509
H        0.81500395      -8.45044878       8.30897992
H        2.57294027      -8.69473401       3.11951538
H        3.21549456     -10.56115314       1.34888264
H        5.57141573     -10.04677372       0.27044597
C       -0.00445707       0.01189536      -1.78238275
H       -0.66409135       0.67374010      -2.43557963
H        0.65740317      -0.63156657      -2.45157240
C       -0.90989263      -0.90692880      -0.91072765
C        0.90977584       0.90977584      -0.90977584
C       -0.00465871       1.77757030       0.00794375
H       -0.66225468       2.44313916      -0.64384735
H        0.64322798       2.43503045       0.67728295
C       -1.78241447       0.00034974      -0.00472694
H       -2.45427497      -0.65498947       0.64260836
H       -2.43311707       0.67328779      -0.65473579
C       -0.91132561       0.90220522       0.91563759
C       -0.01476271      -0.02253852       1.78660255
H       -0.67934791      -0.69751639       2.42135241
H        0.63392994       0.61504881       2.47327442
C        0.01484550      -1.77751727      -0.01636693
H        0.67870853      -2.42144646      -0.68295456
H       -0.62264859      -2.45592969       0.64226336
C        1.78714474       0.01002794       0.00389507
H        2.44202412       0.67113390       0.66197326
H        2.45385902      -0.65136977      -0.64189061
C        0.91606151      -0.90478549       0.90901405
