181
Properties=species:S:1:pos:R:3 pbc="F F F"
C        0.00000000       0.00000000       0.00000000
C        0.88168598       0.88168598      -0.88168598
C        1.74281313       0.29081804      -1.80862420
C        2.55677858       1.09257745      -2.61113234
C        2.49243084       2.48354469      -2.47736155
C        1.64056767       3.07599416      -1.53946986
C        0.82714295       2.26898499      -0.74350263
S        3.57185988       3.50206560      -3.44244207
O        3.23425636       4.89677126      -3.23487356
O        4.91519369       3.01477289      -3.19992162
N        3.19845950       3.18294311      -5.05628904
C        2.04012706       3.55531453      -5.68857390
S        0.56186406       4.02483136      -4.90927085
C       -0.19903712       5.01544352      -6.22440613
C       -1.52696995       5.57644926      -5.74051613
O       -1.57712963       6.62081010      -5.09741808
N       -2.61652973       4.79532017      -6.09677351
C       -3.98317038       5.10262540      -5.91267453
C       -4.45912520       6.33880617      -5.47289873
C       -5.83662846       6.55914872      -5.33944394
C       -6.74107978       5.54255461      -5.64400310
Br      -8.59618068       5.84971489      -5.45624990
C       -6.28627076       4.30634186      -6.08814214
C       -4.91480525       4.10233195      -6.22213434
F       -4.47941254       2.90925472      -6.65862472
N        2.15229870       3.43980828      -6.99328847
C        3.40825545       2.92522255      -7.20557865
C        4.04312916       2.62713116      -8.42174988
C        5.31827097       2.05310487      -8.39936850
C        5.94677567       1.77095695      -7.18877919
C        5.34161191       2.08365974      -5.96596627
C        4.07213991       2.68173135      -6.00073086
H        1.79528805      -0.79161388      -1.90039759
H        3.24831098       0.62330121      -3.30741143
H        1.60408174       4.15773752      -1.41846004
H        0.16332714       2.72975328      -0.01565589
H       -0.35422723       4.41312442      -7.12536913
H        0.44987239       5.85732904      -6.48793998
H       -2.43090632       3.87188226      -6.47632369
H       -3.78820930       7.15973278      -5.23698045
H       -6.18724792       7.53112081      -4.99868261
H       -6.97340957       3.50291264      -6.33212475
H        3.54700040       2.84169691      -9.36301066
H        5.82057323       1.82146546      -9.33575833
H        6.93349064       1.30996769      -7.19134984
H        5.86260342       1.86301570      -5.03878906
C       -0.88168598      -0.88168598      -0.88168598
C       -1.63733648      -0.30202524      -1.90289366
C       -2.45119750      -1.10304185      -2.70624903
C       -2.49279303      -2.48253502      -2.47800903
C       -1.74718790      -3.06240336      -1.44644043
C       -0.93307327      -2.25658155      -0.64997575
S       -3.57542496      -3.49336465      -3.44757794
O       -3.35007774      -4.88923355      -3.12658989
O       -4.89446930      -2.90390016      -3.33151874
N       -3.07637631      -3.31248702      -5.04882832
C       -1.90809520      -3.80266785      -5.57325244
S       -0.52005025      -4.31201411      -4.66390191
C        0.25400083      -5.43931985      -5.85549351
C        1.50526565      -6.05053424      -5.24472685
O        1.44052908      -7.04858209      -4.53304552
N        2.66749789      -5.36875856      -5.57430329
C        3.99450017      -5.75084292      -5.27578680
C        4.35349169      -6.98173804      -4.72433335
C        5.70066603      -7.28149317      -4.48113705
C        6.69167640      -6.34966701      -4.78748732
Br       8.50468376      -6.76316621      -4.45130166
C        6.35402068      -5.12042137      -5.34181255
C        5.01175334      -4.83735511      -5.58405927
F        4.68992108      -3.65177986      -6.12660813
N       -1.92672862      -3.77130873      -6.88735810
C       -3.12727009      -3.19206260      -7.21972395
C       -3.65926461      -2.93873629      -8.49400932
C       -4.89004554      -2.28271671      -8.59798208
C       -5.57486796      -1.87655371      -7.45509015
C       -5.07389877      -2.14202691      -6.17531223
C       -3.84963099      -2.82247588      -6.08249526
H       -1.60815958       0.77249301      -2.06840519
H       -3.06152336      -0.63938944      -3.47811082
H       -1.79413709      -4.13315731      -1.25298490
H       -0.35180072      -2.70775963       0.15082404
H        0.50913966      -4.91264346      -6.78076252
H       -0.43345708      -6.25346841      -6.10821592
H        2.57179617      -4.46389260      -6.02520320
H        3.61305867      -7.73878287      -4.48277973
H        5.95975543      -8.24812154      -4.05418938
H        7.10990847      -4.38241277      -5.58912352
H       -3.11904627      -3.25023388      -9.38242782
H       -5.31292656      -2.08467572      -9.58019474
H       -6.52478969      -1.35358012      -7.55643836
H       -5.63752562      -1.82384090      -5.30304165
C       -0.88168598       0.88168598       0.88168598
C       -1.64307293       1.89809103       0.30109141
C       -2.44432978       2.71199876       1.10415983
C       -2.47652924       2.49162526       2.48518258
C       -1.70355329       1.48297185       3.06950656
C       -0.90811007       0.67087523       2.26064526
S       -3.43603415       3.56427756       3.51605583
O       -3.42353950       3.06508684       4.87727484
O       -3.00429961       4.91399106       3.21159753
N       -5.03281147       3.41087778       2.99400241
C       -5.81787968       2.29993485       3.16620096
S       -5.25145321       0.70271565       3.54179741
C       -6.74109442      -0.00088258       4.30060069
C       -6.46170739      -1.42531677       4.75360482
O       -5.94975376      -1.65418627       5.84553105
N       -6.83606697      -2.38219309       3.82169008
C       -6.82811536      -3.78503433       3.98904852
C       -6.58222110      -4.43117414       5.20153274
C       -6.61555837      -5.83015101       5.27655683
C       -6.89325837      -6.58598000       4.13819956
Br      -6.93140276      -8.47197169       4.25035304
C       -7.14561384      -5.96024039       2.92283979
C       -7.11527585      -4.56883233       2.86321752
F       -7.36694389      -3.96754116       1.68906418
N       -7.08281591       2.57062112       2.93195841
C       -7.10637295       3.88837219       2.54431150
C       -8.20987021       4.68418874       2.19795127
C       -7.99280012       6.00031942       1.77762479
C       -6.70036162       6.51281361       1.69333659
C       -5.58893411       5.74411858       2.05818522
C       -5.82039430       4.43254901       2.50165881
H       -1.60559024       2.07055627      -0.77207475
H       -3.00881717       3.52223706       0.64796939
H       -1.71043553       1.32306084       4.14678294
H       -0.30863703      -0.11468689       2.71478617
H       -7.57896861       0.00930305       3.59599465
H       -7.03103323       0.58464750       5.17946068
H       -7.08748669      -2.06166212       2.89147506
H       -6.37392725      -3.87844245       6.11301913
H       -6.42477822      -6.31428798       6.23206526
H       -7.36551491      -6.52987134       2.02598425
H       -9.21498324       4.27883763       2.25788711
H       -8.84082325       6.62659810       1.51037567
H       -6.55014117       7.53521380       1.34945320
H       -4.59451924       6.17625887       1.99363006
C        0.88168598      -0.88168598       0.88168598
C        2.26638504      -0.87427595       0.70159439
C        3.07582157      -1.68486623       1.49980057
C        2.48413106      -2.49217305       2.47703297
C        1.09617490      -2.51097432       2.64888248
C        0.29363327      -1.69558548       1.85041180
S        3.49844803      -3.57345031       3.44446921
O        2.69125993      -4.20388614       4.47075510
O        4.26105197      -4.36728025       2.50155599
N        4.58489366      -2.58210673       4.27069126
C        4.25758064      -1.73138318       5.29505168
S        2.66231424      -1.16088034       5.67277169
C        2.87247187      -0.74309776       7.42524290
C        1.55464436      -0.24117414       7.99417694
O        0.70582893      -1.02332942       8.41194018
N        1.43927871       1.14108151       7.97736676
C        0.40470768       1.91778042       8.54520229
C       -0.60402247       1.40678385       9.36338602
C       -1.57884746       2.25884432       9.89965597
C       -1.54769860       3.62392477       9.61710130
Br      -2.86988359       4.76270121      10.34236892
C       -0.54804922       4.15208895       8.80835140
C        0.41831428       3.29516576       8.28651251
F        1.38684962       3.81010320       7.51172049
N        5.33087523      -1.32091106       5.93360915
C        6.38959713      -1.88517972       5.26427980
C        7.76166076      -1.78578740       5.54456205
C        8.67651806      -2.40635725       4.68786903
C        8.23527220      -3.10480768       3.56643193
C        6.87082532      -3.23698508       3.28342752
C        5.96062275      -2.63060991       4.16336947
H        2.71906661      -0.25185442      -0.06684927
H        4.15033714      -1.69768685       1.33099963
H        0.63130729      -3.15443958       3.39453243
H       -0.78540428      -1.70872907       1.98541152
H        3.64872986       0.01816923       7.55370568
H        3.17175948      -1.63055471       7.99282723
H        2.13163181       1.66582358       7.45149139
H       -0.65640653       0.35192613       9.61683658
H       -2.35447570       1.84114973      10.53818092
H       -0.50485240       5.21143796       8.57791818
H        8.10196487      -1.23437910       6.41536401
H        9.74149616      -2.33861530       4.89768556
H        8.96347743      -3.56870584       2.90262490
H        6.55748349      -3.79873019       2.40819449
