166
Properties=species:S:1:pos:R:3 pbc="F F F"
C        1.79185211       1.79185211      -1.79185211
C        2.82809808       2.52616248      -1.21985973
C        3.63435472       3.33300073      -2.02690960
C        3.40555950       3.41605807      -3.40918420
C        2.35458376       2.67058642      -3.96766347
C        1.55267607       1.85802597      -3.16240441
C        4.26757856       4.30559217      -4.27543031
S        5.34807497       3.34188207      -5.37615662
C        6.19139413       4.61846937      -6.17983409
N        6.12457767       5.89457398      -5.87829378
C        6.99285575       6.46339217      -6.76486540
N        7.60198092       5.61802767      -7.59691128
N        7.05494717       4.43352320      -7.22484554
C        7.46742927       3.20654693      -7.88155996
C        6.65961977       2.94102700      -9.12954892
C        7.04004278       3.51491331     -10.35323949
C        6.29665175       3.27856943     -11.51170423
C        5.16177545       2.47371952     -11.45100103
C        4.76396677       1.90373589     -10.24379786
C        5.51133014       2.13598679      -9.08640706
H        3.01582117       2.47946039      -0.15043113
H        4.43998306       3.90147573      -1.56614952
H        2.15567314       2.71869463      -5.03667627
H        0.74648112       1.28554485      -3.61315340
H        4.88797285       4.95048176      -3.64246670
H        3.61855718       4.95983472      -4.86898794
H        7.19171803       7.52776447      -6.79835048
H        7.38914095       2.37476547      -7.17435908
H        8.53243210       3.30263704      -8.12672377
H        7.91757774       4.15792427     -10.40979079
H        6.60806528       3.72958120     -12.45059474
H        3.87566846       1.27948077     -10.19291394
H        5.18605860       1.68112977      -8.15314986
C        4.39257039       2.23094646     -12.64389030
C        3.74836115       2.02762403     -13.64293507
Br       2.70672929       1.69886885     -15.25830596
C       -1.79185211      -1.79185211      -1.79185211
C       -1.47116352      -1.96697544      -3.13598133
C       -2.27834783      -2.77351455      -3.94240268
C       -3.41448090      -3.40427216      -3.41204872
C       -3.72346087      -3.21397229      -2.05540048
C       -2.91273968      -2.41356587      -1.24680090
C       -4.29602384      -4.25976860      -4.29280860
S       -4.17057328      -6.02447824      -3.87106214
C       -5.24362622      -6.70166640      -5.04440497
N       -5.80703808      -6.05312817      -6.03727919
C       -6.50987040      -7.03079270      -6.68045022
N       -6.41350588      -8.25127472      -6.15213926
N       -5.61380184      -8.01832694      -5.08118714
C       -5.22592779      -9.11571010      -4.21389827
C       -6.24603196      -9.35726657      -3.12689716
C       -7.35894139     -10.17765684      -3.37159734
C       -8.30978994     -10.40328882      -2.37384664
C       -8.15788815      -9.80136888      -1.12723897
C       -7.06508827      -8.97682148      -0.86959077
C       -6.11127513      -8.75608286      -1.86636601
H       -0.59913109      -1.48103850      -3.56554310
H       -2.01583365      -2.90086394      -4.99091073
H       -4.59970723      -3.69101353      -1.62032328
H       -3.16572346      -2.28114078      -0.19831514
H       -4.01405891      -4.12363569      -5.34322670
H       -5.33437933      -3.92427202      -4.18872850
H       -7.10459905      -6.84631739      -7.56691653
H       -4.23754495      -8.90959891      -3.79112164
H       -5.11250661     -10.00970336      -4.83958295
H       -7.49577298     -10.64203261      -4.34748720
H       -9.16364541     -11.04351578      -2.58108004
H       -6.94714256      -8.50178849       0.10086788
H       -5.26380133      -8.11034542      -1.64619147
C       -9.13857081     -10.03078603      -0.09805031
C       -9.95989254     -10.22292290       0.76389519
Br     -11.28790030     -10.53359196       2.15758816
C       -1.79185211       1.79185211       1.79185211
C       -2.69234667       1.20438169       2.67739193
C       -3.49909796       2.01148796       3.48367913
C       -3.41557027       3.41032560       3.40490590
C       -2.50375019       3.98467105       2.50441241
C       -1.69165166       3.17825006       1.70320473
C       -4.30435935       4.27962396       4.26461773
S       -3.36218228       5.14973010       5.55420129
C       -4.63778234       6.00269515       6.34922010
N       -5.92214296       5.85521268       6.12008979
C       -6.49256467       6.70782346       7.02072519
N       -5.64142518       7.37337360       7.80212108
N       -4.44657277       6.92744520       7.33929794
C       -3.21379907       7.39657166       7.94516544
C       -2.73404398       8.68196456       7.31418715
C       -3.22038747       9.91773192       7.77007618
C       -2.78578894      11.11140442       7.18973205
C       -1.86846085      11.07550552       6.14252963
C       -1.38234763       9.85823408       5.67091881
C       -1.81323944       8.66475998       6.25572457
H       -2.77553149       0.12303390       2.74714730
H       -4.19842580       1.53860777       4.17057475
H       -2.42073646       5.06689813       2.42340944
H       -0.98931285       3.64084047       1.01502605
H       -5.07576543       3.66387834       4.74127753
H       -4.81786036       5.00572950       3.62378999
H       -7.56368422       6.84076114       7.11338762
H       -2.45433454       6.61170476       7.87222620
H       -3.40400649       7.54199348       9.01579295
H       -3.94916047       9.95732175       8.57881057
H       -3.17171022      12.05879011       7.55774090
H       -0.67032772       9.82744899       4.85028646
H       -1.42138553       7.72391123       5.87504146
C       -1.42111537      12.30509242       5.54119937
C       -1.04646352      13.33487144       5.03758529
Br      -0.44068317      14.99993703       4.22328390
C        1.79185211      -1.79185211       1.79185211
C        1.31670049      -3.02479179       2.23262800
C        2.12363439      -3.83103288       3.03959779
C        3.40741812      -3.40696461       3.41641904
C        3.86845680      -2.15977517       2.96460167
C        3.06497976      -1.35639026       2.15173642
C        4.26919707      -4.27349747       4.30590651
S        5.69157265      -4.96594690       3.40859411
C        6.42815924      -5.89708590       4.66445246
N        5.92209447      -6.12010203       5.85524893
C        6.85531576      -6.92911757       6.43667999
N        7.90983625      -7.22926615       5.67781747
N        7.63291049      -6.53463370       4.54577173
C        8.54060727      -6.59995584       3.41497306
C        9.64016042      -5.57014573       3.51988953
C       10.80753257      -5.85405067       4.24661233
C       11.82783085      -4.90629306       4.35280150
C       11.68221027      -3.66420689       3.74007884
C       10.52693230      -3.36158411       3.02298412
C        9.50906820      -4.31225255       2.91240324
H        0.32272016      -3.36656989       1.95642264
H        1.73903548      -4.79165877       3.37691407
H        4.85970615      -1.80748236       3.24385552
H        3.44039900      -0.39603913       1.80874125
H        3.67074682      -5.09609499       4.71407950
H        4.61925045      -3.67394609       5.15418330
H        6.75741688      -7.31699896       7.44341713
H        7.97145030      -6.47895713       2.48785806
H        8.96362159      -7.61179128       3.38638005
H       10.92619321      -6.81686025       4.74223933
H       12.72550178      -5.14506682       4.91767263
H       10.40878227      -2.39097837       2.54830253
H        8.61485529      -4.05843306       2.34704987
C       12.73203269      -2.68478819       3.85058627
C       13.61125897      -1.86452503       3.94313625
Br      15.03289350      -0.53822887       4.09278174
C       -0.00445707       0.01189536      -1.78238275
H       -0.66409135       0.67374010      -2.43557963
H        0.65740317      -0.63156657      -2.45157240
C       -0.90989263      -0.90692880      -0.91072765
C        0.90977584       0.90977584      -0.90977584
C       -0.00465871       1.77757030       0.00794375
H       -0.66225468       2.44313916      -0.64384735
H        0.64322798       2.43503045       0.67728295
C       -1.78241447       0.00034974      -0.00472694
H       -2.45427497      -0.65498947       0.64260836
H       -2.43311707       0.67328779      -0.65473579
C       -0.91132561       0.90220522       0.91563759
C       -0.01476271      -0.02253852       1.78660255
H       -0.67934791      -0.69751639       2.42135241
H        0.63392994       0.61504881       2.47327442
C        0.01484550      -1.77751727      -0.01636693
H        0.67870853      -2.42144646      -0.68295456
H       -0.62264859      -2.45592969       0.64226336
C        1.78714474       0.01002794       0.00389507
H        2.44202412       0.67113390       0.66197326
H        2.45385902      -0.65136977      -0.64189061
C        0.91606151      -0.90478549       0.90901405
