145
Properties=species:S:1:pos:R:3 pbc="F F F"
C        0.00000000       0.00000000       0.00000000
C        0.88194808       0.88194808      -0.88194808
C        1.91819405       1.61625846      -0.30995570
C        2.72445070       2.42309671      -1.11700558
C        2.49565547       2.50615405      -2.49928017
C        1.44467973       1.76068240      -3.05775944
C        0.64277205       0.94812195      -2.25250038
C        3.35767454       3.39568814      -3.36552628
S        4.43817094       2.43197805      -4.46625260
C        5.28149011       3.70856535      -5.26993007
N        5.21467364       4.98466996      -4.96838976
C        6.08295172       5.55348815      -5.85496138
N        6.69207689       4.70812365      -6.68700725
N        6.14504315       3.52361917      -6.31494152
C        6.55752525       2.29664291      -6.97165594
C        5.74971575       2.03112297      -8.21964489
C        6.13013875       2.60500928      -9.44333547
C        5.38674773       2.36866540     -10.60180021
C        4.25187143       1.56381549     -10.54109701
C        3.85406275       0.99383187      -9.33389383
C        4.60142611       1.22608277      -8.17650303
H        2.10591714       1.56955637       0.75947290
H        3.53007903       2.99157171      -0.65624550
H        1.24576912       1.80879060      -4.12677224
H       -0.16342291       0.37564083      -2.70324938
H        3.97806882       4.04057774      -2.73256268
H        2.70865315       4.04993070      -3.95908392
H        6.28181400       6.61786044      -5.88844645
H        6.47923693       1.46486144      -6.26445505
H        7.62252808       2.39273302      -7.21681975
H        7.00767371       3.24802024      -9.49988676
H        5.69816126       2.81967718     -11.54069072
H        2.96576443       0.36957675      -9.28300992
H        4.27615457       0.77122574      -7.24324583
C        3.48266636       1.32104244     -11.73398628
C        2.83845712       1.11772001     -12.73303104
Br       1.79682527       0.78896483     -14.34840193
C       -0.88194808      -0.88194808      -0.88194808
C       -0.29562555      -1.73250640      -1.81627626
C       -1.10274229      -2.53880220      -2.62300849
C       -2.50066942      -2.49488431      -2.50553597
C       -3.07395132      -1.62933197      -1.55983829
C       -2.26727704      -0.82825191      -0.74786542
C       -3.37064635      -3.35415354      -3.39408908
S       -4.18849925      -4.68514668      -2.46275566
C       -5.05273388      -5.47048699      -3.73676466
N       -4.94079711      -5.20850490      -5.01843136
C       -5.78566885      -6.11559750      -5.59013490
N       -6.41289244      -6.93177598      -4.74253937
N       -5.94974120      -6.48616814      -3.54769450
C       -6.37570581      -7.13106207      -2.31905621
C       -7.66361886      -6.54167308      -1.79519167
C       -8.89968081      -7.01520133      -2.26360137
C      -10.09582159      -6.47322487      -1.78816688
C      -10.06243004      -5.44681951      -0.84753438
C       -8.84522064      -4.95800762      -0.37856019
C       -7.64908848      -5.50453312      -0.85039032
H        0.78478423      -1.77488498      -1.92589987
H       -0.63078135      -3.19814000      -3.34897490
H       -4.15550234      -1.57572862      -1.45010100
H       -2.72891245      -0.16745895      -0.01909590
H       -2.76242220      -3.79835370      -4.19043333
H       -4.12315712      -2.71894916      -3.87556149
H       -5.94159323      -6.18672742      -6.65980025
H       -5.57508005      -7.05715440      -1.57631897
H       -6.50092461      -8.20016054      -2.53099569
H       -8.93780609      -7.80768631      -3.01008832
H      -11.04331532      -6.85444627      -2.16076757
H       -8.81656263      -4.15345326       0.35166479
H       -6.70827983      -5.11093433      -0.47141199
C      -11.29464822      -4.88500565      -0.35804121
C      -12.32663094      -4.41448655       0.05190932
Br     -13.99525972      -3.65369695       0.71476465
C       -0.88194808       0.88194808       0.88194808
C       -1.70158077       0.29791501       1.84491244
C       -2.50837568       1.10499480       2.65118251
C       -2.50593309       2.49985147       2.49530514
C       -1.67506483       3.07056566       1.51749108
C       -0.86271144       2.26472597       0.71595698
C       -3.39516494       3.36761023       3.35611380
S       -2.43635883       4.35497960       4.54506317
C       -3.71376300       5.18278618       5.36343635
N       -4.99827246       4.95636085       5.21310005
C       -5.56700414       5.82628185       6.09811527
N       -4.71418013       6.57706362       6.79596404
N       -3.52234941       6.16915611       6.29209832
C       -2.28733451       6.73429254       6.80419704
C       -1.91229148       8.00633731       6.08185482
C       -2.44133711       9.23828924       6.49885715
C       -2.10365580      10.41930582       5.83425172
C       -1.24144287      10.37375892       4.74158214
C       -0.71445928       9.15937541       4.30795376
C       -1.04822333       7.97899422       4.97679437
H       -1.72157004      -0.78083727       1.97526784
H       -3.14403497       0.63478680       3.39907447
H       -1.65587935       4.14956869       1.37588392
H       -0.22355194       2.72475982      -0.03284446
H       -4.10579102       2.73966226       3.90575596
H       -3.98036180       4.02977329       2.70753268
H       -6.63753356       5.90821953       6.24236780
H       -1.49077344       5.98716564       6.73061434
H       -2.42929838       6.92814818       7.87463428
H       -3.12813857       9.28423840       7.34320375
H       -2.52131427      11.36410207       6.17311282
H       -0.04546481       9.12068175       3.45220454
H       -0.62566700       7.04032934       4.62462981
C       -0.89411297      11.59009860       4.05348351
C       -0.60322418      12.60878308       3.47720091
Br      -0.13288160      14.25590973       2.54540069
C        0.88194808      -0.88194808       0.88194808
C        1.40907973      -0.37004573       2.06528275
C        2.21601344      -1.17701569       2.87152385
C        2.50646833      -2.49800395       2.49661742
C        1.96828020      -2.99595963       1.29888174
C        1.15544387      -2.19199047       0.49596004
C        3.39613147      -3.36098727       3.36177023
S        2.46687270      -4.69892209       4.17060680
C        3.73150043      -5.45287312       5.07561197
N        4.95580028      -4.99894421       5.21298887
C        5.53168493      -5.92002660       6.03968972
N        4.73830504      -6.91760813       6.43129462
N        3.58676361      -6.61689157       5.77994866
C        2.41745576      -7.46030238       5.94806596
C        2.41433996      -8.61331449       4.97282916
C        3.09631237      -9.80141363       5.28075751
C        3.10263980     -10.87139018       4.38318336
C        2.43417263     -10.75563738       3.16697392
C        1.76023441      -9.58102538       2.84052866
C        1.74955757      -8.51310497       3.74134937
H        1.20040227       0.65259628       2.36819462
H        2.62133862      -0.76350282       3.79305480
H        2.17958705      -4.01655506       0.98518986
H        0.74492182      -2.59603876      -0.42549328
H        3.87551943      -2.74466643       4.13102337
H        4.19380974      -3.78379302       2.74006500
H        6.56081183      -5.85551674       6.37179233
H        1.51453603      -6.85043155       5.84358584
H        2.42060408      -7.83079535       6.98068141
H        3.63481144      -9.89798084       6.22278844
H        3.63414641     -11.78430342       4.64007933
H        1.24219680      -9.48644012       1.88971417
H        1.21661786      -7.60435855       3.46964974
C        2.44170545     -11.85684940       2.23914023
C        2.44801419     -12.77911446       1.46207952
Br       2.45821489     -14.27033907       0.20563807
