125
Properties=species:S:1:pos:R:3 pbc="F F F"
C        0.00000000       0.00000000       0.00000000
O        4.09063149       3.24865289      -7.79650768
C        4.05565992       3.33413161      -6.56643261
N        3.22739960       2.49187159      -5.86445054
N        3.05660591       2.55078911      -4.51517909
C        2.19888499       1.70342287      -4.03733675
C        1.88179272       1.66959709      -2.63938236
C        2.27965706       2.44857890      -1.56993791
C        1.62170506       1.92944308      -0.42639230
C        0.86700280       0.86700280      -0.86700280
O        1.01492668       0.70596589      -2.20904559
C        4.91390679       4.33021242      -5.78809306
O        4.76325221       5.66672558      -6.25173663
C        3.79013323       6.44966141      -5.70122549
C        3.69772491       7.73043234      -6.25615506
C        2.76839602       8.65573447      -5.77388666
C        1.92362684       8.29695859      -4.72844234
C        1.99823455       7.02255963      -4.17232324
C        2.92946717       6.09898134      -4.66147692
H        2.67673804       1.85437584      -6.43190087
H        1.67152090       0.97645840      -4.68330904
H        2.95953077       3.28771696      -1.61527465
H        1.69283254       2.28666496       0.59196599
H        5.95201186       4.04582013      -6.00014407
H        4.82329565       4.24779895      -4.70198759
H        4.36042804       8.01122140      -7.07187812
H        2.71755743       9.64608271      -6.21796008
H        1.34038674       6.73543172      -3.35523334
H        2.95339453       5.12156536      -4.19591776
C        0.97138197       9.24732537      -4.21499059
C        0.17387689      10.04325754      -3.78497475
Br      -1.11562138      11.33021255      -3.08967551
O       -4.72268022      -2.80318474      -7.60992710
C       -4.50265886      -3.03504343      -6.41852186
N       -3.69410964      -2.17733938      -5.71227271
N       -3.32705122      -2.37860211      -4.41692078
C       -2.52210464      -1.48383096      -3.93370901
C       -2.01598270      -1.57925217      -2.59553729
C       -2.15765851      -2.53375310      -1.60676226
C       -1.41334588      -2.07247531      -0.49171925
C       -0.86700280      -0.86700280      -0.86700280
O       -1.22326795      -0.56310408      -2.14356613
C       -5.11086670      -4.23206678      -5.68927880
O       -4.86278143      -5.46543409      -6.35349890
C       -3.73152956      -6.16420726      -6.04528331
C       -3.56056112      -7.33977891      -6.78397227
C       -2.46432638      -8.17610323      -6.55758754
C       -1.53059035      -7.83351645      -5.58492098
C       -1.68311752      -6.66181659      -4.84818331
C       -2.78198729      -5.82660016      -5.08133798
H       -3.31336258      -1.40242807      -6.24722411
H       -2.18653085      -0.61461794      -4.53013954
H       -2.72743343      -3.44889429      -1.68619466
H       -1.29386494      -2.55996514       0.46629858
H       -6.19579868      -4.07417497      -5.72800240
H       -4.87756546      -4.27324422      -4.62227251
H       -4.29251227      -7.60842750      -7.54258778
H       -2.35450179      -9.08617893      -7.14091950
H       -0.95652762      -6.38780421      -4.08671998
H       -2.86072028      -4.92806460      -4.48209277
C       -0.40429915      -8.69506872      -5.33433007
C        0.53896974      -9.41661874      -5.12446018
Br       2.06415575     -10.58330411      -4.78511832
O       -5.80827098       6.99133514       2.33618593
C       -5.11250851       6.07101697       2.77269866
N       -4.35316916       5.33672704       1.89382554
N       -3.60925269       4.25611657       2.25720485
C       -2.99598083       3.66368460       1.27997918
C       -2.20458301       2.48806895       1.49812020
C       -1.95613656       1.72159361       2.62044369
C       -1.09326914       0.67410556       2.21016573
C       -0.86700280       0.86700280       0.86700280
O       -1.54175241       1.96208713       0.42609862
C       -5.04668318       5.72585189       4.25967721
O       -6.33148869       5.51659928       4.83362645
C       -6.86438289       4.26011902       4.81651823
C       -8.14742402       4.17028341       5.36660488
C       -8.80910380       2.94220280       5.44671055
C       -8.18285822       1.79432186       4.97184770
C       -6.90948475       1.87009172       4.41354096
C       -6.25269098       3.10365960       4.33357485
H       -4.43901924       5.60580178       0.91819374
H       -3.05983034       4.03251553       0.23894247
H       -2.35258766       1.89978949       3.61014523
H       -0.68670854      -0.12032837       2.82115133
H       -4.63363416       6.61815589       4.74618600
H       -4.34047285       4.92831893       4.50429041
H       -8.63548135       5.06787463       5.74017157
H       -9.80372045       2.89620142       5.88167835
H       -6.41448015       0.97666631       4.03990534
H       -5.26273466       3.11337555       3.89476744
C       -8.85040249       0.52156657       5.06172886
C       -9.40947083      -0.54436598       5.13700433
Br     -10.31343704      -2.26788876       5.25871840
O        5.47659641      -7.22014223       2.43905342
C        4.87809890      -6.22441427       2.85371097
N        4.10840056      -5.49807870       1.97724247
N        3.46751598      -4.34429860       2.31075954
C        2.82644908      -3.77635881       1.33683672
C        2.13420724      -2.53441360       1.52215132
C        2.02014862      -1.67785673       2.60016851
C        1.20257010      -0.60069318       2.17427715
C        0.86700280      -0.86700280       0.86700280
O        1.43246241      -2.03540976       0.46206599
C        4.94372909      -5.77569120       4.31279198
O        6.27796083      -5.62183200       4.78192159
C        6.89189970      -4.41132918       4.63779125
C        8.21457590      -4.37778365       5.09195275
C        8.96179515      -3.19830826       5.03791374
C        8.38177523      -2.04276568       4.52448686
C        7.06907365      -2.06357110       4.06047266
C        6.32635567      -3.24885156       4.11471820
H        4.10491123      -5.83798275       1.02012079
H        2.78958443      -4.21835268       0.32335122
H        2.47435950      -1.81703731       3.57112558
H        0.89599304       0.26059342       2.75213188
H        4.50768681      -6.60077908       4.88951016
H        4.31262498      -4.91435439       4.54610283
H        8.66665769      -5.28109541       5.49577445
H        9.98615863      -3.19524964       5.40019195
H        6.60979229      -1.16390564       3.65735387
H        5.30880325      -3.21640074       3.74567365
C        9.13855780      -0.81860015       4.47653999
C        9.77236319       0.20663849       4.43638448
Br      10.79717291       1.86436265       4.37145642
