138
Properties=species:S:1:pos:R:3 pbc="F F F"
O        5.00053551       4.15855691      -8.70641171
C        4.96556394       4.24403563      -7.47633663
N        4.13730362       3.40177561      -6.77435456
N        3.96650994       3.46069314      -5.42508311
C        3.10878901       2.61332690      -4.94724077
C        2.79169674       2.57950111      -3.54928638
C        3.18956108       3.35848292      -2.47984194
C        2.53160908       2.83934711      -1.33629632
C        1.77690682       1.77690682      -1.77690682
O        1.92483071       1.61586991      -3.11894962
C        5.82381081       5.24011645      -6.69799709
O        5.67315624       6.57662960      -7.16164066
C        4.70003726       7.35956543      -6.61112952
C        4.60762893       8.64033636      -7.16605908
C        3.67830005       9.56563850      -6.68379068
C        2.83353087       9.20686262      -5.63834636
Br       1.58406595      10.45386324      -4.96463315
C        2.90813858       7.93246365      -5.08222726
C        3.83937119       7.00888537      -5.57138094
H        3.58664207       2.76427987      -7.34180490
H        2.58142492       1.88636243      -5.59321306
H        3.86943479       4.19762098      -2.52517867
H        2.60273656       3.19656898      -0.31793803
H        6.86191588       4.95572415      -6.91004809
H        5.73319967       5.15770298      -5.61189161
H        5.27033206       8.92112542      -7.98178214
H        3.62746145      10.55598673      -7.12786411
H        2.25029077       7.64533574      -4.26513737
H        3.86329855       6.03146938      -5.10582178
O       -6.57428012      -3.28621305      -8.00501096
C       -6.07100127      -3.66905439      -6.94588056
N       -5.29255397      -2.79550925      -6.22537058
N       -4.63117773      -3.13587337      -5.08523509
C       -3.90969079      -2.18882197      -4.57084392
C       -3.12381530      -2.40542317      -3.39124577
C       -2.88617909      -3.52473238      -2.61697448
C       -2.01462055      -3.11687781      -1.57575414
C       -1.77690682      -1.77690682      -1.77690682
O       -2.44169998      -1.33877887      -2.87917139
C       -6.29497961      -5.07522521      -6.39171953
O       -5.98302501      -6.09440884      -7.33399265
C       -4.70872376      -6.58121198      -7.38079647
C       -4.49668018      -7.54818224      -8.36916195
C       -3.24952894      -8.16053894      -8.51766135
C       -2.20524858      -7.80223928      -7.67125198
Br      -0.51845531      -8.63474664      -7.84936038
C       -2.39929295      -6.83476345      -6.68877309
C       -3.65021636      -6.22285690      -6.54656425
H       -5.17331992      -1.87706232      -6.64234459
H       -3.86321471      -1.17854802      -5.01923768
H       -3.29267115      -4.51163413      -2.78792918
H       -1.61307726      -3.72646440      -0.77770191
H       -7.37421069      -5.14563241      -6.20784502
H       -5.83818974      -5.25029097      -5.41431354
H       -5.31445649      -7.82981137      -9.02897176
H       -3.10947144      -8.91189487      -9.28994598
H       -1.58700163      -6.54959883      -6.02416342
H       -3.75500659      -5.47879461      -5.76678852
O       -6.64066096       7.95801593       3.26682723
C       -5.96752451       7.01913804       3.69927367
N       -5.20577445       6.28680707       2.82085228
N       -4.48591054       5.18807855       3.17829709
C       -3.86621021       4.60162646       2.20152001
C       -3.09801193       3.40951354       2.41295877
C       -2.88100588       2.62063691       3.52624316
C       -2.02874256       1.56575632       3.11275363
C       -1.77690682       1.77690682       1.77690682
O       -2.42608855       2.89022366       1.34333802
C       -5.93225790       6.64851225       5.18115420
O       -7.22974846       6.45136143       5.73031660
C       -7.78287419       5.20441875       5.68343927
C       -9.07623791       5.12701501       6.21077145
C       -9.75927226       3.90901885       6.25943812
C       -9.14413682       2.75879174       5.77581129
Br     -10.04923507       1.10194278       5.85138449
C       -7.86053197       2.82243044       5.23986708
C       -7.18229439       4.04599177       5.19135133
H       -5.27086199       6.57328864       1.84857620
H       -3.90656900       4.98854454       1.16588687
H       -3.29096626       2.78913617       4.51213202
H       -1.64557550       0.75469443       3.71697364
H       -5.51278258       7.52566299       5.68924255
H       -5.24344833       5.83536710       5.42397883
H       -9.55564560       6.02637651       6.59121751
H      -10.76164502       3.87250774       6.67715953
H       -7.37410927       1.92711858       4.85953602
H       -6.18511322       4.04636850       4.76910799
O        7.32054477      -7.38341503       3.16154433
C        6.45139530      -6.62903401       3.60550691
N        5.71055234      -5.87720176       2.72567971
N        4.78033579      -4.96099492       3.11095547
C        4.21545767      -4.31615754       2.13774148
C        3.24316454      -3.29183465       2.38548504
C        2.74961967      -2.73072069       3.54754558
C        1.80388614      -1.75128390       3.15208247
C        1.77690682      -1.77690682       1.77690682
O        2.65095579      -2.70487322       1.30382122
C        6.15187745      -6.51091548       5.09913142
O        7.31181064      -6.22718994       5.87242592
C        7.65754577      -4.92459576       6.08859067
C        8.83579479      -4.75492674       6.82330285
C        9.29990502      -3.47804284       7.14978137
C        8.58020244      -2.36127867       6.73725874
Br       9.18674850      -0.62916609       7.18664775
C        7.41046048      -2.51475608       5.99761293
C        6.95191449      -3.79643784       5.67128517
H        5.95504749      -5.99121007       1.74646927
H        4.46077331      -4.52150541       1.07872169
H        3.04084474      -2.99768622       4.55370349
H        1.21490851      -1.10935380       3.79298127
H        5.81317908      -7.50809540       5.40641364
H        5.31396745      -5.85096084       5.33786597
H        9.39668087      -5.62871147       7.14784729
H       10.21560024      -3.37094560       7.72476645
H        6.84335744      -1.64591853       5.67148790
H        6.03608707      -3.86677845       5.09772419
C       -0.00445707       0.01189536      -1.78238275
H       -0.66409135       0.67374010      -2.43557963
H        0.65740317      -0.63156657      -2.45157240
C       -0.90989263      -0.90692880      -0.91072765
C        0.90977584       0.90977584      -0.90977584
C       -0.00465871       1.77757030       0.00794375
H       -0.66225468       2.44313916      -0.64384735
H        0.64322798       2.43503045       0.67728295
C       -1.78241447       0.00034974      -0.00472694
H       -2.45427497      -0.65498947       0.64260836
H       -2.43311707       0.67328779      -0.65473579
C       -0.91132561       0.90220522       0.91563759
C       -0.01476271      -0.02253852       1.78660255
H       -0.67934791      -0.69751639       2.42135241
H        0.63392994       0.61504881       2.47327442
C        0.01484550      -1.77751727      -0.01636693
H        0.67870853      -2.42144646      -0.68295456
H       -0.62264859      -2.45592969       0.64226336
C        1.78714474       0.01002794       0.00389507
H        2.44202412       0.67113390       0.66197326
H        2.45385902      -0.65136977      -0.64189061
C        0.91606151      -0.90478549       0.90901405
