125
Properties=species:S:1:pos:R:3 pbc="F F F"
C        0.00000000       0.00000000       0.00000000
C        0.88294416       0.88294416      -0.88294416
C        0.52252870       2.20666307      -1.10823670
C        1.31065084       3.03130501      -1.91733853
C        2.47133574       2.48473058      -2.49249708
N        3.42463377       3.04137230      -3.32704414
C        3.38605921       4.41318960      -3.82607540
C        4.01332613       5.36428002      -2.86092679
H        3.50124105       5.42299901      -1.90969099
O        4.45554390       6.59370682      -3.45366328
C        5.47387305       5.73099365      -2.92724253
C        4.40851704       2.11882212      -3.63357926
C        5.56282846       2.22266578      -4.42893244
C        6.38781044       1.10006047      -4.54944053
C        6.06593651      -0.08709290      -3.90164820
C        4.91583405      -0.19033635      -3.11713842
C        4.07082810       0.93242127      -2.97828037
C        2.85114142       1.16004119      -2.26841678
C        2.03972631       0.34416487      -1.45047704
H       -0.37951662       2.61430550      -0.65772124
H        1.01886010       4.06306818      -2.08769734
H        2.33678733       4.67803317      -3.99537058
H        3.87537462       4.43372829      -4.80574130
H        6.11927020       5.22820977      -3.63509214
H        5.96608977       6.03865649      -2.01271143
H        5.82180540       3.14129126      -4.94530200
H        7.28597402       1.16772963      -5.15901126
H        4.66723634      -1.12098546      -2.61523665
H        2.31733693      -0.68981472      -1.27028788
C        6.93148377      -1.22944573      -4.04114000
C        7.65637959      -2.18616622      -4.15796438
Br       8.82847483      -3.73310235      -4.34685953
C       -0.88294416      -0.88294416      -0.88294416
C       -0.50344923      -2.19586428      -1.13811497
C       -1.29130541      -3.02012686      -1.94786210
C       -2.47147856      -2.48435529      -2.49272955
N       -3.42961298      -3.04320372      -3.32023351
C       -3.37590089      -4.40515150      -3.84427182
C       -3.96906449      -5.38406639      -2.88540206
H       -3.43913054      -5.45030794      -1.94449258
O       -4.40016389      -6.61060707      -3.49214304
C       -5.42390682      -5.77557287      -2.93262954
C       -4.43483837      -2.13312901      -3.59295104
C       -5.60116424      -2.24359658      -4.36966585
C       -6.44772586      -1.13395533      -4.45563025
C       -6.13520854       0.04721153      -3.79249481
C       -4.97327333       0.15719411      -3.02655690
C       -4.10636380      -0.95256378      -2.92260216
C       -2.87039631      -1.17078984      -2.23841324
C       -2.05894297      -0.35502935      -1.42039591
H        0.41350405      -2.59517822      -0.71083595
H       -0.98455312      -4.04337097      -2.14170154
H       -2.32533497      -4.64821382      -4.03664228
H       -3.88218986      -4.41723780      -4.81541655
H       -6.09055415      -5.27205330      -3.61996465
H       -5.89424968      -6.10796335      -2.01524465
H       -5.85316751      -3.15750167      -4.89772949
H       -7.35530229      -1.20694553      -5.05046709
H       -4.73211515       1.08318751      -2.51255988
H       -2.35138299       0.67051121      -1.21693832
C       -7.02300789       1.17620295      -3.89637309
C       -7.76653985       2.12173326      -3.98337116
Br      -8.96876814       3.65057580      -4.12403967
C       -0.88294416       0.88294416       0.88294416
C       -2.15946808       0.45199905       1.22596135
C       -2.98745464       1.24511950       2.02672023
C       -2.49306237       2.48378702       2.47171401
N       -3.07094890       3.46883395       3.25326735
C       -4.42809298       3.40833128       3.78889995
C       -4.47050800       2.67764574       5.09037919
H       -4.17679006       1.63886808       5.01827292
O       -5.61284260       2.98971025       5.90036115
C       -4.33296954       3.38462284       6.41451684
C       -2.19426307       4.52125833       3.44539701
C       -2.33090695       5.72458738       4.15893236
C       -1.24855879       6.60973090       4.17902175
C       -0.07246746       6.30438841       3.50363595
C        0.05931246       5.11164018       2.79030841
C       -1.01980361       4.20141495       2.76031119
C       -1.21028364       2.92622529       2.14309046
C       -0.39190846       2.11107580       1.33138397
H       -2.52832300      -0.50801151       0.87219863
H       -3.98310048       0.89935392       2.28717123
H       -5.05791232       2.90449042       3.04778833
H       -4.80650183       4.43245886       3.87588353
H       -4.10599620       4.44219973       6.43437617
H       -3.93744835       2.82597971       7.25402962
H       -3.24580962       5.97800085       4.68458819
H       -1.33962586       7.54286103       4.73022802
H        0.97934301       4.87891117       2.26191936
H        0.60618932       2.44230930       1.06169012
C        1.02825778       7.23214522       3.53929059
C        1.95011516       8.00914155       3.56915136
Br       3.44068058       9.26547891       3.61743369
C        0.88294416      -0.88294416       0.88294416
C        2.26491418      -0.73962084       0.83289345
C        3.09292136      -1.54028466       1.62608835
C        2.48938415      -2.48867879       2.47050046
N        3.03718085      -3.40901296       3.34685639
C        4.46974020      -3.59681385       3.55877016
C        4.99910432      -2.65237737       4.58705125
H        4.91565637      -1.61045990       4.30781479
O        6.22446301      -3.07943402       5.19901696
C        5.07056491      -3.01256566       6.04897865
C        2.04505235      -4.13358948       3.98227658
C        2.11418052      -5.15852203       4.94172413
C        0.91732002      -5.70676738       5.41322403
C       -0.30610741      -5.24970605       4.93689318
C       -0.37275696      -4.23598297       3.97941011
C        0.82359709      -3.66525857       3.49267408
C        1.10292177      -2.63826690       2.53841072
C        0.28562842      -1.82157075       1.72716905
H        2.71685255      -0.00265910       0.17299847
H        4.17093208      -1.42085082       1.57784273
H        4.97340091      -3.43757348       2.59921669
H        4.63996541      -4.64398588       3.83089291
H        4.64531512      -3.94691935       6.39033763
H        5.03095295      -2.21054725       6.77595749
H        3.06272649      -5.52900764       5.31666454
H        0.95632393      -6.49810035       6.15829062
H       -1.33108502      -3.88423044       3.60834210
H       -0.79413692      -1.92854554       1.76340147
C       -1.52495540      -5.83016866       5.43796478
C       -2.54574059      -6.31630609       5.85761224
Br      -4.19626390      -7.10234921       6.53614670
