178
Properties=species:S:1:pos:R:3 pbc="F F F"
C        1.71917216      -1.84082743      -4.68704961
C        2.14564039      -0.38695752      -4.59072378
O        2.27716080      -0.05688726      -3.20745242
C        2.43529980       1.28101509      -2.93792145
C        3.26373155       2.10090461      -3.72085020
C        3.38261641       3.44578732      -3.34290156
C        2.73336372       3.97494399      -2.23047459
C        1.93309713       3.14541137      -1.43560838
C        1.79873878       1.79873878      -1.79873878
N        3.00603018       5.31085868      -2.09044551
C        3.80804201       5.60850518      -3.08349897
S        4.41275645       7.20100569      -3.38986458
C        5.41924625       6.99520672      -4.88389700
C        4.91828168       5.84990707      -5.74480699
H        3.88745159       6.05871370      -6.06151637
Br       5.89332049       5.83269528      -7.44545030
C        4.96343685       4.48737644      -5.03413718
H        4.49306024       3.75765005      -5.70877310
C        6.34879381       3.94511293      -4.67264441
C        7.00546743       3.08468128      -5.57198637
C        8.27880618       2.58205234      -5.29163579
C        8.91556870       2.92033291      -4.10184806
C        8.28056761       3.75916285      -3.19264521
C        7.01018622       4.26911769      -3.47484612
N        4.09025969       4.51233077      -3.85615065
H        1.61172240      -2.14735175      -5.73189480
H        0.76672305      -2.00124061      -4.17082203
H        2.45770683      -2.48996363      -4.20387202
H        1.38907415       0.24765268      -5.06776618
H        3.10499715      -0.27317451      -5.10580107
H        3.81798495       1.71275423      -4.56606062
H        1.43757452       3.55525874      -0.56297808
H        6.46627256       6.85938659      -4.59390102
H        5.37387509       7.94043708      -5.43675049
H        6.53594556       2.79841835      -6.51146096
H        8.77398616       1.92698537      -6.00358102
H        9.90492596       2.52739604      -3.88122313
H        8.77179612       4.01733933      -2.25732507
H        6.55464561       4.91541113      -2.72713585
C       -3.90344843      -2.86638582       2.20443990
C       -4.02252877      -3.02627757       0.69939970
O       -2.72637518      -2.83301793       0.13166715
C       -2.69863936      -2.71841954      -1.23717744
C       -3.48138111      -3.53943235      -2.06467289
C       -3.35638963      -3.36476242      -3.45015325
C       -2.48663848      -2.43612793      -4.01601589
C       -1.68594173      -1.64162027      -3.18655488
C       -1.79873878      -1.79873878      -1.79873878
N       -2.56540173      -2.45772334      -5.38420929
C       -3.45482032      -3.37792049      -5.66730535
S       -3.96171306      -3.76582360      -7.27609006
C       -5.20573708      -5.06186369      -7.03074920
C       -5.89828460      -4.92794336      -5.68676777
H       -6.41124222      -3.95785655      -5.63858288
Br      -7.38379033      -6.20309625      -5.58457949
C       -4.93984546      -5.05380135      -4.49130366
H       -5.52750984      -4.84652643      -3.58544712
C       -4.26197367      -6.41207541      -4.29250207
C       -4.86026896      -7.36007757      -3.44178855
C       -4.28663687      -8.61923598      -3.24662146
C       -3.09792779      -8.95103693      -3.88878496
C       -2.48242184      -8.02558426      -4.72436957
C       -3.05878428      -6.76846541      -4.92690035
N       -3.94526476      -3.97700853      -4.53646781
H       -4.87273824      -3.01373431       2.69020710
H       -3.52627601      -1.87064681       2.46061834
H       -3.19136069      -3.59234817       2.61209365
H       -4.72877612      -2.28401829       0.30830140
H       -4.38846195      -4.03599232       0.48683055
H       -4.13507411      -4.30175671      -1.65996898
H       -1.00044267      -0.92734138      -3.62802728
H       -4.73013135      -6.04102998      -7.14839885
H       -5.93081344      -4.97252464      -7.84772457
H       -5.78982901      -7.13337285      -2.92262301
H       -4.76927827      -9.34163251      -2.59364177
H       -2.64905455      -9.92922289      -3.73526769
H       -1.54795659      -8.27862524      -5.21987868
H       -2.53344643      -6.07893335      -5.58481281
C        0.07551581      -0.64078676       5.28169691
C       -0.79138161       0.57037633       4.98764870
O       -1.33637655       0.41457443       3.67677497
C       -1.96015906       1.52738538       3.16669189
C       -2.79650700       2.33381468       3.95516468
C       -3.41145496       3.42851368       3.33133666
C       -3.23567159       3.72166090       1.98144981
C       -2.42506369       2.89609477       1.19295841
C       -1.79873878       1.79873878       1.79873878
N       -3.93432600       4.84624950       1.62675886
C       -4.53536263       5.24267389       2.72200963
S       -5.51607610       6.66525656       2.82229406
C       -6.03291733       6.70568395       4.55974869
C       -5.01557981       6.03365305       5.46376287
H       -4.05667373       6.56388108       5.38712685
Br      -5.51399900       6.31936998       7.33809708
C       -4.79920070       4.54657423       5.13917555
H       -3.98235626       4.19266149       5.78446565
C       -5.99176057       3.61273051       5.36206008
C       -6.12101551       2.94634044       6.59477913
C       -7.20378147       2.10024214       6.84847070
C       -8.17210067       1.89473678       5.87091222
C       -8.05840569       2.53311975       4.64085023
C       -6.98021061       3.38585844       4.38808097
N       -4.27568562       4.40661904       3.77643645
H        0.51240954      -0.57395203       6.28262702
H        0.88335695      -0.72772103       4.54738245
H       -0.51590609      -1.56069365       5.21640278
H       -0.18025356       1.47917674       5.04506271
H       -1.59137862       0.61236710       5.73387799
H       -2.99056925       2.10973644       4.99649411
H       -2.29824270       3.11801790       0.13955074
H       -7.02321013       6.24726488       4.64908517
H       -6.15618131       7.75915952       4.83572183
H       -5.38114157       3.08322897       7.38145432
H       -7.29146740       1.60247202       7.81061312
H       -9.01329018       1.23425073       6.06600422
H       -8.80860232       2.36659054       3.87126766
H       -6.93464541       3.85522988       3.40731730
C        1.03201674      -5.00745996      -1.47408236
C        1.86396173      -4.72206634      -0.23662142
O        1.19621902      -3.71147948       0.52002745
C        1.92714472      -3.17486660       1.55222502
C        2.72125983      -3.97379669       2.39042984
C        3.40284816      -3.33346780       3.43498934
C        3.30337999      -1.96468448       3.67071782
C        2.48567105      -1.17795138       2.85049445
C        1.79873878      -1.79873878       1.79873878
N        4.07533988      -1.59184231       4.74015218
C        4.63757190      -2.69670152       5.16577273
S        5.75894397      -2.76215736       6.48252538
C        6.20670367      -4.51671732       6.57492898
C        6.09332584      -5.19690138       5.22276851
H        6.77982654      -4.71284496       4.51501015
Br       6.81376342      -7.01626145       5.34144119
C        4.66906432      -5.17139871       4.64448744
H        4.72520102      -5.60052931       3.63375306
C        3.60036760      -5.95419466       5.41198890
C        3.32971464      -7.28593520       5.04648524
C        2.37666422      -8.04371677       5.73211332
C        1.66747004      -7.48152862       6.78875101
C        1.90947224      -6.16339219       7.15951124
C        2.86789684      -5.40633403       6.47991916
N        4.24483083      -3.78407643       4.42983385
H        1.49842915      -5.78472176      -2.08688546
H        0.91313757      -4.10255112      -2.07938421
H        0.02614609      -5.33767261      -1.19220349
H        2.86167661      -4.38111357      -0.53829716
H        1.94670547      -5.64589525       0.34502300
H        2.78651304      -5.04702062       2.26326614
H        2.39935455      -0.11451436       3.04194243
H        5.58327991      -5.00562736       7.33065291
H        7.23655893      -4.56820872       6.94629500
H        3.86507260      -7.75684928       4.22390299
H        2.18910629      -9.07401253       5.44143373
H        0.92352410      -8.06911718       7.32090384
H        1.34954487      -5.71821039       7.97870525
H        3.01388571      -4.37813951       6.80516737
C       -0.00445707       0.01189536      -1.78238275
H       -0.66409135       0.67374010      -2.43557963
H        0.65740317      -0.63156657      -2.45157240
C       -0.90989263      -0.90692880      -0.91072765
C        0.90977584       0.90977584      -0.90977584
C       -0.00465871       1.77757030       0.00794375
H       -0.66225468       2.44313916      -0.64384735
H        0.64322798       2.43503045       0.67728295
C       -1.78241447       0.00034974      -0.00472694
H       -2.45427497      -0.65498947       0.64260836
H       -2.43311707       0.67328779      -0.65473579
C       -0.91132561       0.90220522       0.91563759
C       -0.01476271      -0.02253852       1.78660255
H       -0.67934791      -0.69751639       2.42135241
H        0.63392994       0.61504881       2.47327442
C        0.01484550      -1.77751727      -0.01636693
H        0.67870853      -2.42144646      -0.68295456
H       -0.62264859      -2.45592969       0.64226336
C        1.78714474       0.01002794       0.00389507
H        2.44202412       0.67113390       0.66197326
H        2.45385902      -0.65136977      -0.64189061
C        0.91606151      -0.90478549       0.90901405
