186
Properties=species:S:1:pos:R:3 pbc="F F F"
C        1.71917216      -1.84082743      -4.68704961
C        2.14564039      -0.38695752      -4.59072378
O        2.27716080      -0.05688726      -3.20745242
C        2.43529980       1.28101509      -2.93792145
C        3.26373155       2.10090461      -3.72085020
C        3.38261641       3.44578732      -3.34290156
C        2.73336372       3.97494399      -2.23047459
C        1.93309713       3.14541137      -1.43560838
C        1.79873878       1.79873878      -1.79873878
N        3.00603018       5.31085868      -2.09044551
C        3.80804201       5.60850518      -3.08349897
S        4.41275645       7.20100569      -3.38986458
C        5.41924625       6.99520672      -4.88389700
C        4.91828168       5.84990707      -5.74480699
H        3.88745159       6.05871370      -6.06151637
C        4.96343685       4.48737644      -5.03413718
H        4.49306024       3.75765005      -5.70877310
C        6.34879381       3.94511293      -4.67264441
C        7.00546743       3.08468128      -5.57198637
C        8.27880618       2.58205234      -5.29163579
C        8.91556870       2.92033291      -4.10184806
C        8.28056761       3.75916285      -3.19264521
C        7.01018622       4.26911769      -3.47484612
N        4.09025969       4.51233077      -3.85615065
H        1.61172240      -2.14735175      -5.73189480
H        0.76672305      -2.00124061      -4.17082203
H        2.45770683      -2.48996363      -4.20387202
H        1.38907415       0.24765268      -5.06776618
H        3.10499715      -0.27317451      -5.10580107
H        3.81798495       1.71275423      -4.56606062
H        1.43757452       3.55525874      -0.56297808
H        6.46627256       6.85938659      -4.59390102
H        5.37387509       7.94043708      -5.43675049
H        6.53594556       2.79841835      -6.51146096
H        8.77398616       1.92698537      -6.00358102
H        9.90492596       2.52739604      -3.88122313
H        8.77179612       4.01733933      -2.25732507
H        6.55464561       4.91541113      -2.72713585
C        5.63448903       5.83726428      -6.99400161
C        6.23431268       5.82667595      -8.04020210
Br       7.20417680       5.80955551      -9.73181981
C       -0.34223669      -5.21625082       0.99309316
C       -1.33410026      -4.90262511      -0.11268127
O       -0.86311098      -3.75091788      -0.81369710
C       -1.75741687      -3.19845396      -1.69836550
C       -2.55605023      -3.99283520      -2.53660092
C       -3.41356900      -3.33100547      -3.42673082
C       -3.48151611      -1.94293522      -3.51433096
C       -2.66036528      -1.15609551      -2.69765609
C       -1.79873878      -1.79873878      -1.79873878
N       -4.40391874      -1.55319135      -4.45022428
C       -4.89534071      -2.66561462      -4.93909083
S       -6.14650013      -2.72353034      -6.13359625
C       -6.42073482      -4.49899228      -6.37862287
C       -6.08576476      -5.29610517      -5.13112581
H       -6.73314085      -4.96782518      -4.30671562
C       -4.61508768      -5.16801913      -4.70184367
H       -4.51201548      -5.70148798      -3.74597993
C       -3.56633980      -5.74203223      -5.65817913
C       -3.12163790      -7.06466872      -5.47582846
C       -2.18042924      -7.63544094      -6.33662414
C       -1.65686576      -6.89160433      -7.38927958
C       -2.07246349      -5.57862209      -7.58129009
C       -3.01959541      -5.00856031      -6.72599430
N       -4.31279617      -3.77062262      -4.37532232
H       -0.65436991      -6.09983659       1.55794104
H       -0.24818805      -4.37011194       1.68199552
H        0.65347555      -5.39960087       0.57451011
H       -2.32059755      -4.70975136       0.32585590
H       -1.38782126      -5.76576777      -0.78403469
H       -2.49673811      -5.07385887      -2.52620282
H       -2.70516669      -0.07580106      -2.77484358
H       -5.84065148      -4.83434760      -7.24456109
H       -7.47547036      -4.62903888      -6.64655341
H       -3.50929168      -7.67470275      -4.66183043
H       -1.85706479      -8.66197948      -6.18550827
H       -0.92221814      -7.33357070      -8.05775629
H       -1.65752121      -4.99157293      -8.39736637
H       -3.30559080      -3.97585357      -6.91574822
C       -6.48249137      -6.66808665      -5.31517689
C       -6.81474991      -7.81712115      -5.46931968
Br      -7.35198386      -9.67501274      -5.71855552
C       -0.62477582       5.14505733      -1.20443881
C       -1.55166672       4.83930330      -0.04156338
O       -0.99793810       3.74281045       0.68697741
C       -1.82620701       3.19282836       1.63520096
C       -2.62290590       3.98903740       2.47354306
C       -3.40919828       3.33177698       3.43033004
C       -3.40939730       1.94755278       3.58183222
C       -2.58962604       1.16084932       2.76364152
C       -1.79873878       1.79873878       1.79873878
N       -4.27093144       1.56108104       4.57532188
C       -4.79099255       2.67213161       5.03692200
S       -5.98982597       2.72985688       6.28394387
C       -6.33430518       4.50094246       6.46310234
C       -6.09141367       5.25384820       5.16773387
H       -6.75860536       4.85993104       4.38914525
C       -4.63667773       5.17088672       4.67738602
H       -4.60029709       5.66389420       3.69529210
C       -3.57442027       5.83372696       5.55840393
C       -3.19938323       7.16484251       5.29790933
C       -2.24849440       7.81533697       6.08866293
C       -1.64559176       7.14435234       7.14780557
C       -1.99160272       5.82459339       7.41617955
C       -2.94819395       5.17480047       6.63115562
N       -4.28514449       3.77459085       4.39900577
H       -1.00167292       5.98720210      -1.79260957
H       -0.52230176       4.27311298      -1.85911026
H        0.37888340       5.39099242      -0.84049380
H       -2.54656843       4.58335181      -0.42542723
H       -1.61544643       5.72918193       0.59299536
H       -2.61382925       5.07000291       2.41296763
H       -2.58132172       0.08431689       2.89017272
H       -5.73277150       4.90087312       7.28591555
H       -7.38111627       4.59671483       6.77323156
H       -3.65002367       7.71922679       4.47657441
H       -1.97957602       8.84705936       5.87791717
H       -0.90337526       7.64839554       7.76177433
H       -1.51469354       5.29444139       8.23732558
H       -3.17783865       4.14033835       6.87901558
C       -6.54228029       6.61408860       5.30938603
C       -6.91988108       7.75328994       5.42801971
Br      -7.53042963       9.59528215       5.61984034
C        2.51427428       2.12781203       4.17893209
C        2.75468913       0.62946472       4.22418223
O        2.66635559       0.12835643       2.88972679
C        2.63330820      -1.24078115       2.78014699
C        3.45680254      -2.06602866       3.56265516
C        3.37019200      -3.44939190       3.35172140
C        2.52529017      -4.01388383       2.39960829
C        1.72908874      -3.18417486       1.60085328
C        1.79873878      -1.79873878       1.79873878
N        2.62210579      -5.38108145       2.40414713
C        3.50691999      -5.66443149       3.32869468
S        3.95932821      -7.27622161       3.76807690
C        5.16852970      -7.03280159       5.09701868
C        4.91874922      -5.74079967       5.85344685
H        3.92076804      -5.77595929       6.31095432
C        5.02733326      -4.48647777       4.97113945
H        4.73569661      -3.62912413       5.59466265
C        6.40695013      -4.17418357       4.38541745
C        7.26950657      -3.30889321       5.08373530
C        8.54480598      -3.01173770       4.59595064
C        8.97827130      -3.56442084       3.39505753
C        8.13825787      -4.41238946       2.68172834
C        6.86526986      -4.71693177       3.17194840
N        4.01131092      -4.53282466       3.91460553
H        2.57958608       2.56371512       5.18039450
H        1.52756196       2.35036779       3.75911031
H        3.25333662       2.61551229       3.53379088
H        1.99873989       0.15771058       4.86346370
H        3.75341252       0.45180075       4.63601194
H        4.15718617      -1.65874926       4.28086436
H        1.08048486      -3.62361209       0.85171438
H        6.17754988      -7.06855817       4.67345213
H        5.08715288      -7.89426151       5.76964827
H        6.96220679      -2.85795378       6.02566430
H        9.20034692      -2.34922073       5.15498489
H        9.96906425      -3.33149052       3.01299036
H        8.47070241      -4.83801489       1.73774321
H        6.24512256      -5.38007400       2.57199603
C        5.78803194      -5.67797735       6.99974564
C        6.51605621      -5.62536365       7.95977087
Br       7.69320989      -5.54029175       9.51205048
C       -0.00445707       0.01189536      -1.78238275
H       -0.66409135       0.67374010      -2.43557963
H        0.65740317      -0.63156657      -2.45157240
C       -0.90989263      -0.90692880      -0.91072765
C        0.90977584       0.90977584      -0.90977584
C       -0.00465871       1.77757030       0.00794375
H       -0.66225468       2.44313916      -0.64384735
H        0.64322798       2.43503045       0.67728295
C       -1.78241447       0.00034974      -0.00472694
H       -2.45427497      -0.65498947       0.64260836
H       -2.43311707       0.67328779      -0.65473579
C       -0.91132561       0.90220522       0.91563759
C       -0.01476271      -0.02253852       1.78660255
H       -0.67934791      -0.69751639       2.42135241
H        0.63392994       0.61504881       2.47327442
C        0.01484550      -1.77751727      -0.01636693
H        0.67870853      -2.42144646      -0.68295456
H       -0.62264859      -2.45592969       0.64226336
C        1.78714474       0.01002794       0.00389507
H        2.44202412       0.67113390       0.66197326
H        2.45385902      -0.65136977      -0.64189061
C        0.91606151      -0.90478549       0.90901405
