125
Properties=species:S:1:pos:R:3 pbc="F F F"
C        0.00000000       0.00000000       0.00000000
C       -1.17153742       7.12644765       1.56681382
C        0.07667812       6.53846138       0.97753676
C        0.11777657       6.12558077      -0.35948985
C        1.29642488       5.61253570      -0.90743962
C        2.43909722       5.50486415      -0.11679562
C        2.40376570       5.89449315       1.21939712
C        1.23078134       6.42213575       1.76251532
N        3.64000839       4.96868233      -0.65782643
S        4.02601012       3.35411271      -0.33755846
O        5.24669740       3.04812935      -1.04804014
O        3.93410868       3.13314932       1.09162019
C        2.71568317       2.44006318      -1.12081178
C        1.90411897       1.63274984      -0.30814365
C        0.88141716       0.88141716      -0.88141716
C        0.65757396       0.92317071      -2.25470999
C        1.46717661       1.72260560      -3.06334364
C        2.50445050       2.48170307      -2.50414310
H       -2.01718232       7.04688117       0.87590377
H       -1.01611680       8.18630548       1.79258552
H       -1.44294946       6.59828271       2.48655232
H       -0.76832479       6.20565819      -0.98593114
H        1.30268311       5.30920182      -1.94850138
H        3.29224977       5.80685063       1.84125400
H        1.22425702       6.74421331       2.80148976
H        3.88796452       5.24026598      -1.60942919
H        2.07010114       1.58585263       0.76659787
H       -0.13978728       0.33676212      -2.70658340
H        1.28000330       1.74299239      -4.13585894
C        3.26473337       3.28331245      -3.42771896
C        3.90147028       3.95466030      -4.20121374
Br       4.93102000       5.04017299      -5.45188938
C       -1.43019758       3.42990044      -6.38779926
C       -1.43180216       1.94793284      -6.15373342
C       -2.47594101       1.32917737      -5.45608354
C       -2.48485740      -0.05641032      -5.27513248
C       -1.44424396      -0.82920399      -5.78730904
C       -0.39109719      -0.22186256      -6.46590198
C       -0.39028011       1.16063750      -6.66075916
N       -1.43301541      -2.23824068      -5.59526105
S       -0.47128975      -2.88307210      -4.36331944
O       -0.68935417      -4.31152591      -4.34198680
O        0.86858686      -2.34756088      -4.49666379
C       -1.18394835      -2.21767777      -2.87493201
C       -0.37290672      -1.40463544      -2.06747031
C       -0.88141716      -0.88141716      -0.88141716
C       -2.18777248      -1.15894413      -0.48873804
C       -2.99288084      -1.97079611      -1.28944890
C       -2.49606806      -2.51014571      -2.48408290
H       -2.23864787       3.92347789      -5.83862511
H       -1.56529142       3.64111625      -7.45342799
H       -0.48455603       3.86682728      -6.05105218
H       -3.29365847       1.92283037      -5.05243645
H       -3.31090255      -0.51042765      -4.73905611
H        0.42580354      -0.82122137      -6.86242856
H        0.42714161       1.61893324      -7.21305542
H       -2.32184924      -2.73091482      -5.68489563
H        0.65216987      -1.18280385      -2.35872192
H       -2.58843330      -0.75292123       0.43779629
H       -4.01191696      -2.17955218      -0.96738549
C       -3.41785026      -3.31807289      -3.23984163
C       -4.18984285      -3.99471190      -3.87278957
Br      -5.43808957      -5.08877994      -4.89621286
C       -6.97737347      -2.42992332      -0.15935374
C       -6.33504776      -1.64040550       0.94296048
C       -6.07941201      -0.27194965       0.79538483
C       -5.51354074       0.46077468       1.84208478
C       -5.19517197      -0.17512000       3.04070502
C       -5.42733856      -1.53964537       3.19116855
C       -6.00759927      -2.26846231       2.15126481
N       -4.60331236       0.55579601       4.10740878
S       -2.93090257       0.45354914       4.33322958
O       -2.58414532       1.33005010       5.42867148
O       -2.55508164      -0.94555757       4.36611373
C       -2.25688414       1.16940647       2.85026752
C       -1.44938897       0.35630736       2.03931614
C       -0.88141716       0.88141716       0.88141716
C       -1.10673891       2.20713571       0.52158003
C       -1.90618644       3.01684496       1.33009445
C       -2.48194899       2.50652639       2.50182129
H       -7.06808548      -1.83818954      -1.07610085
H       -7.98142537      -2.74557964       0.14175744
H       -6.37653822      -3.31477026      -0.39298703
H       -6.32447892       0.23468151      -0.13589589
H       -5.33511179       1.52139799       1.70387654
H       -5.17508740      -2.04067881       4.12343781
H       -6.20481167      -3.32901597       2.29118487
H       -4.95692748       1.49620767       4.28452454
H       -1.25996931      -0.68079101       2.31017760
H       -0.66387240       2.62146205      -0.38177621
H       -2.07138042       4.05203852       1.03543569
C       -3.30215097       3.42375579       3.24985801
C       -3.98907013       4.19193541       3.87633877
Br      -5.09976031       5.43401689       4.88930517
C        5.19333503       4.09847700       3.29323838
C        4.64270549       2.79369937       3.78859662
C        5.00210883       1.58328029       3.18401865
C        4.51112699       0.37122591       3.67649912
C        3.65236322       0.36578764       4.77418141
C        3.27316523       1.56520558       5.37090209
C        3.77645063       2.77506935       4.88902048
N        3.13242628      -0.85972002       5.27437085
S        1.56465323      -1.31657676       4.83645130
O        1.30942460      -2.61411215       5.41933014
O        0.67107766      -0.20626842       5.09829173
C        1.66320715      -1.53943993       3.07391105
C        0.85443203      -0.72566243       2.26491800
C        0.88141716      -0.88141716       0.88141716
C        1.70329655      -1.83876805       0.29339005
C        2.50433997      -2.65080618       1.09797970
C        2.48627480      -2.51137258       2.49264929
H        5.75808421       3.96855899       2.36426987
H        5.86564556       4.52984452       4.04180212
H        4.37947929       4.80245553       3.09175717
H        5.67231217       1.57586779       2.32682016
H        4.81345665      -0.55207181       3.19485785
H        2.59861799       1.56535813       6.22458653
H        3.49014070       3.70275751       5.37959739
H        3.76713678      -1.65748909       5.31303382
H        0.20286286       0.02389353       2.71038657
H        1.72641243      -1.96429216      -0.78714634
H        3.14042498      -3.39586594       0.62256371
C        3.36469677      -3.38795796       3.22311004
C        4.10037518      -4.12209822       3.83487092
Br       5.28990494      -5.30914091       4.82403652
