117
Properties=species:S:1:pos:R:3 pbc="F F F"
C        0.00000000       0.00000000       0.00000000
C       -1.17153742       7.12644765       1.56681382
C        0.07667812       6.53846138       0.97753676
C        0.11777657       6.12558077      -0.35948985
C        1.29642488       5.61253570      -0.90743962
C        2.43909722       5.50486415      -0.11679562
C        2.40376570       5.89449315       1.21939712
C        1.23078134       6.42213575       1.76251532
N        3.64000839       4.96868233      -0.65782643
S        4.02601012       3.35411271      -0.33755846
O        5.24669740       3.04812935      -1.04804014
O        3.93410868       3.13314932       1.09162019
C        2.71568317       2.44006318      -1.12081178
C        1.90411897       1.63274984      -0.30814365
C        0.88141716       0.88141716      -0.88141716
C        0.65757396       0.92317071      -2.25470999
C        1.46717661       1.72260560      -3.06334364
C        2.50445050       2.48170307      -2.50414310
Br       3.50780100       3.53959244      -3.72299246
H       -2.01718232       7.04688117       0.87590377
H       -1.01611680       8.18630548       1.79258552
H       -1.44294946       6.59828271       2.48655232
H       -0.76832479       6.20565819      -0.98593114
H        1.30268311       5.30920182      -1.94850138
H        3.29224977       5.80685063       1.84125400
H        1.22425702       6.74421331       2.80148976
H        3.88796452       5.24026598      -1.60942919
H        2.07010114       1.58585263       0.76659787
H       -0.13978728       0.33676212      -2.70658340
H        1.28000330       1.74299239      -4.13585894
C       -1.04516739       3.22413042      -6.56705944
C       -1.11504311       1.75386905      -6.27642869
C       -2.20914958       1.20412259      -5.59782020
C       -2.28042850      -0.17175053      -5.36422117
C       -1.25263063      -1.00385589      -5.80427047
C       -0.15071947      -0.46509011      -6.46305216
C       -0.08711610       0.90745542      -6.71074109
N       -1.30516024      -2.40347275      -5.55788415
S       -0.41808143      -3.03502187      -4.26457799
O       -0.69376248      -4.45203628      -4.19706812
O        0.94627722      -2.55719428      -4.36472076
C       -1.16026576      -2.28371768      -2.83257469
C       -0.34900644      -1.47082161      -2.02518442
C       -0.88141716      -0.88141716      -0.88141716
C       -2.21196069      -1.09257468      -0.53091929
C       -3.01750787      -1.90424039      -1.33137759
C       -2.49709200      -2.50964467      -2.48356000
Br      -3.71599034      -3.56733996      -3.48705560
H       -1.85374998       3.77000150      -6.07004661
H       -1.13062619       3.39759525      -7.64457223
H       -0.09645702       3.63748767      -6.20981158
H       -3.01738617       1.84445096      -5.25032934
H       -3.14397502      -0.57186177      -4.84454953
H        0.65619962      -1.11079929      -6.80324672
H        0.76861513       1.31152137      -7.24711707
H       -2.20888287      -2.86479250      -5.66398432
H        0.69456363      -1.30040031      -2.28351921
H       -2.63139534      -0.63471215       0.36254925
H       -4.05570869      -2.06060625      -1.04253969
C       -6.91325942      -2.61022419       0.08506118
C       -6.26391920      -1.77605175       1.14973529
C       -6.04798797      -0.40585332       0.96071254
C       -5.47498335       0.36816184       1.97325500
C       -5.10966717      -0.22786368       3.17895350
C       -5.30217406      -1.59346086       3.37014854
C       -5.88948754      -2.36376016       2.36467439
N       -4.51013464       0.54552939       4.21085312
S       -2.83041348       0.49186016       4.39540765
O       -2.47889375       1.40524825       5.45872489
O       -2.41742943      -0.89588010       4.45408849
C       -2.21333806       1.18564360       2.87757647
C       -1.40578444       0.37245787       2.06677015
C       -0.88141716       0.88141716       0.88141716
C       -1.15041319       2.19110498       0.49393648
C       -1.94989800       3.00104442       1.30218343
C       -2.48208524       2.50702952       2.50118191
Br      -3.57028509       3.71492837       3.48517244
H       -7.04273514      -2.04516158      -0.84377847
H       -7.90071914      -2.94337746       0.42026149
H       -6.29564468      -3.48528235      -0.14158140
H       -6.32986121       0.06985112       0.02355222
H       -5.32792139       1.42901086       1.80345407
H       -5.01324253      -2.06336245       4.30796631
H       -6.05527865      -3.42497334       2.53667526
H       -4.88358642       1.48093589       4.37313738
H       -1.18247849      -0.65204278       2.35892018
H       -0.74168701       2.59282180      -0.43095057
H       -2.14955087       4.02363658       0.98566717
C       -3.28213329      -6.52072938       1.14950032
C       -1.80821230      -6.24513097       1.20068406
C       -1.23962779      -5.56089601       2.28157897
C        0.13932661      -5.34129755       2.33577604
C        0.95567385      -5.80109111       1.30399203
C        0.39819522      -6.46570175       0.21496476
C       -0.97749903      -6.69934283       0.16855796
N        2.35830402      -5.56915959       1.33905354
S        2.99398362      -4.29215678       0.43154089
O        4.41450363      -4.23690408       0.69145918
O        2.50054372      -4.40162400      -0.92652991
C        2.26587744      -2.84441188       1.16626881
C        1.45294058      -2.03700364       0.35506825
C        0.88141716      -0.88141716       0.88141716
C        1.11050694      -0.51912662       2.20582109
C        1.92222586      -1.31965100       3.01124899
C        2.50978658      -2.48369592       2.49681418
Br       3.56978166      -3.48549022       3.71511402
H       -3.81402212      -6.00936485       1.95845236
H       -3.46607644      -7.59535782       1.24832178
H       -3.70181592      -6.16914553       0.20145132
H       -1.86755060      -5.19802897       3.09278618
H        0.55414123      -4.81682158       3.18942350
H        1.03158963      -6.82131697      -0.59506020
H       -1.39636118      -7.24039613      -0.67705439
H        2.82812223      -5.67061418       2.23892328
H        1.26863070      -2.30453807      -0.68381287
H        0.66664997       0.38358471       2.62049299
H        2.09274751      -1.02152333       4.04458379
