138
Properties=species:S:1:pos:R:3 pbc="F F F"
C       -0.26163340       8.03635167       0.65690979
C        0.98658214       7.44836540       0.06763273
C        1.02768059       7.03548479      -1.26939388
C        2.20632890       6.52243973      -1.81734364
C        3.34900125       6.41476818      -1.02669964
C        3.31366973       6.80439718       0.30949310
C        2.14068537       7.33203977       0.85261130
N        4.54991242       5.87858635      -1.56773045
S        4.93591414       4.26401674      -1.24746248
O        6.15660142       3.95803337      -1.95794416
O        4.84401270       4.04305335       0.18171617
C        3.62558720       3.34996720      -2.03071580
C        2.81402300       2.54265387      -1.21804768
C        1.79132118       1.79132118      -1.79132118
C        1.56747798       1.83307473      -3.16461401
C        2.37708063       2.63250963      -3.97324766
C        3.41435453       3.39160710      -3.41404712
Br       4.41770502       4.44949646      -4.63289649
H       -1.10727829       7.95678520      -0.03400026
H       -0.10621277       9.09620950       0.88268149
H       -0.53304543       7.50818673       1.57664830
H        0.14157924       7.11556221      -1.89583517
H        2.21258713       6.21910585      -2.85840541
H        4.20215379       6.71675465       0.93134997
H        2.13416105       7.65411733       1.89158574
H        4.79786854       6.15017000      -2.51933322
H        2.98000516       2.49575665      -0.14330615
H        0.77011675       1.24666615      -3.61648742
H        2.18990732       2.65289641      -5.04576297
C       -7.86610069       1.58398495      -0.83569275
C       -7.22108006       0.77875936      -1.92499412
C       -6.97920407      -0.59054421      -1.76281098
C       -6.41061642      -1.33778926      -2.79770660
C       -6.07573162      -0.71568011      -3.99905733
C       -6.29415005       0.64945615      -4.16387991
C       -6.87710032       1.39286183      -3.13587535
N       -5.48096153      -1.46153203      -5.05373566
S       -3.80573083      -1.37637478      -5.26528775
O       -3.45710529      -2.26585726      -6.34961640
O       -3.41695455       0.01894139      -5.30733672
C       -3.15159052      -2.08478137      -3.76989831
C       -2.34407559      -1.27165137      -2.95899758
C       -1.79132118      -1.79132118      -1.79132118
C       -2.03188382      -3.11164241      -1.42164049
C       -2.83134293      -3.92143306      -2.23006193
C       -3.39189732      -3.41660866      -3.41150277
Br      -4.47634098      -4.62620829      -4.39754871
H       -7.97041302       1.00143004       0.08547582
H       -8.86450096       1.90590958      -1.14872386
H       -7.25938863       2.46547807      -0.60458245
H       -7.23721745      -1.08648414      -0.82927503
H       -6.24306458      -2.39867635      -2.64835745
H       -6.02899490       1.13972527      -5.09828884
H       -7.06341932       2.45383259      -3.28710591
H       -5.84148563      -2.40029494      -5.22559120
H       -2.14282979      -0.23879703      -3.23744114
H       -1.60093163      -3.52172204      -0.51061665
H       -3.00856165      -4.95238465      -1.92762039
C       -5.57245879      -3.27927412       4.82462382
C       -5.08387036      -1.90932157       5.19276603
C       -5.56691371      -0.77094464       4.53659019
C       -5.13133699       0.50258264       4.91219264
C       -4.20460490       0.64211461       5.94374955
C       -3.70315423      -0.48456237       6.58998195
C       -4.15043287      -1.75597209       6.22565306
N       -3.74065013       1.93148551       6.32409358
S       -2.24133705       2.45864712       5.74740919
O       -2.04048657       3.80809538       6.22399701
O       -1.25628419       1.43093083       6.01813486
C       -2.47136699       2.54952589       3.98537732
C       -1.66225304       1.73575640       3.17671509
C       -1.79132118       1.79132118       1.79132118
C       -2.71571857       2.64849170       1.20095645
C       -3.51730448       3.46072879       2.00480465
C       -3.39753060       3.42160930       3.40086884
Br      -4.56949250       4.56466958       4.36593589
H       -6.20498514      -3.25278682       3.93130884
H       -6.16181659      -3.70009611       5.64559476
H       -4.72598803      -3.94052966       4.61303463
H       -6.29101982      -0.86827502       3.73023181
H       -5.52919628       1.36762377       4.39327834
H       -2.97546880      -0.37996771       7.39205737
H       -3.76761928      -2.62580839       6.75488174
H       -4.42616994       2.68640791       6.35479392
H       -0.93143945       1.06411533       3.62351318
H       -2.81882714       2.69561321       0.11882997
H       -4.23436326       4.12680109       1.52740236
C       -2.35817224      -7.44213986       2.03384086
C       -0.88511431      -7.16283790       2.08959122
C       -0.32113592      -6.47994935       3.17374584
C        1.05709444      -6.25690218       3.23211564
C        1.87732435      -6.71187181       2.20127291
C        1.32442170      -7.37508600       1.10906611
C       -0.05053216      -7.61218755       1.05845846
N        3.27924797      -6.47638002       2.24060124
S        3.91395215      -5.19536019       1.33808101
O        5.33364120      -5.13708664       1.60185112
O        3.42433883      -5.30256534      -0.02155429
C        3.18015643      -3.75144035       2.07467341
C        2.36722948      -2.94403662       1.26345844
C        1.79132118      -1.79132118       1.79132118
C        2.01601364      -1.43189506       3.11725802
C        2.82771971      -2.23240309       3.92271512
C        3.41965625      -3.39356624       3.40678625
Br       4.47908701      -4.39577435       4.62523661
H       -2.89349993      -6.93427678       2.84273032
H       -2.53956516      -8.51749818       2.12938222
H       -2.77630081      -7.08917573       1.08561808
H       -0.95211503      -6.12083877       3.98425288
H        1.46831311      -5.73357861       4.08820667
H        1.96085035      -7.72693364       0.29977448
H       -0.46577596      -8.15211987       0.21034874
H        3.74698406      -6.57896018       3.14142752
H        2.18632547      -3.20933627       0.22340623
H        1.56872218      -0.53142889       3.53311925
H        2.99477013      -1.93653183       4.95726474
C       -0.00445707       0.01189536      -1.78238275
H       -0.66409135       0.67374010      -2.43557963
H        0.65740317      -0.63156657      -2.45157240
C       -0.90989263      -0.90692880      -0.91072765
C        0.90977584       0.90977584      -0.90977584
C       -0.00465871       1.77757030       0.00794375
H       -0.66225468       2.44313916      -0.64384735
H        0.64322798       2.43503045       0.67728295
C       -1.78241447       0.00034974      -0.00472694
H       -2.45427497      -0.65498947       0.64260836
H       -2.43311707       0.67328779      -0.65473579
C       -0.91132561       0.90220522       0.91563759
C       -0.01476271      -0.02253852       1.78660255
H       -0.67934791      -0.69751639       2.42135241
H        0.63392994       0.61504881       2.47327442
C        0.01484550      -1.77751727      -0.01636693
H        0.67870853      -2.42144646      -0.68295456
H       -0.62264859      -2.45592969       0.64226336
C        1.78714474       0.01002794       0.00389507
H        2.44202412       0.67113390       0.66197326
H        2.45385902      -0.65136977      -0.64189061
C        0.91606151      -0.90478549       0.90901405
