181
Properties=species:S:1:pos:R:3 pbc="F F F"
C        0.00000000       0.00000000       0.00000000
C        0.88095087       0.88095087      -0.88095087
C        2.21548856       0.54330914      -1.08261848
C        3.01658237       1.34685029      -1.89979689
C        2.50606669       2.50565720      -2.49957853
C        1.15512857       2.82015619      -2.29147235
C        0.34397612       2.01306956      -1.48662550
N        3.28423394       3.32875263      -3.33306302
C        4.36846088       2.94464143      -4.09700917
N        4.45408999       1.72455569      -4.57275924
C        5.49343514       1.40796348      -5.39046629
N        6.49106365       2.30484446      -5.70435722
N        7.41045612       1.76978875      -6.52844289
N        7.03111815       0.52442439      -6.79005701
C        5.85691469       0.28845834      -6.11443633
S        5.02886768      -1.21216230      -6.19615220
O        5.26319379      -1.71134988      -7.53983395
O        5.46770384      -1.94414951      -5.02346940
C        3.29478385      -0.87334521      -6.04341263
C        2.55194038      -0.53872652      -7.18096703
C        1.18622225      -0.27463712      -7.05728093
C        0.57397772      -0.35567618      -5.80460925
C        1.30903033      -0.71956026      -4.67718463
C        2.67322500      -0.99034720      -4.79609305
C        6.50545094       3.61397398      -5.22140651
C        7.53621381       4.50477470      -5.52804613
C        7.49555735       5.78917841      -4.98801954
C        6.44160233       6.16755067      -4.15240156
C        5.41262505       5.26751490      -3.85217530
C        5.43143674       3.98024742      -4.39925705
H        2.64422839      -0.33986686      -0.61694890
H        4.05725596       1.06525976      -2.04456109
H        0.71215577       3.69111592      -2.76817528
H       -0.70159898       2.27442798      -1.34528868
H        2.95292732       4.28064901      -3.40459422
H        3.02408196      -0.48238055      -8.15951882
H        0.60860105      -0.00813858      -7.93851645
H        0.83262750      -0.78642691      -3.70188346
H        3.24417787      -1.26337459      -3.91126074
H        8.36799542       4.21370122      -6.16593370
H        8.29354072       6.49541968      -5.20892322
H        6.42851762       7.16801459      -3.72350480
H        4.62926941       5.59189386      -3.17460593
C       -0.82909352      -0.05961657      -5.67292849
C       -2.00416567       0.18833334      -5.56264585
Br      -3.90415797       0.58924739      -5.38432816
C       -0.88095087      -0.88095087      -0.88095087
C       -0.83698278      -2.26438038      -0.74005302
C       -1.65418585      -3.06774868      -1.54129502
C       -2.49966252      -2.50506867      -2.50657122
C       -2.53586441      -1.10779868      -2.62309403
C       -1.73153239      -0.29710482      -1.81503396
N       -3.33916933      -3.28596815      -3.32091211
C       -3.87176858      -4.52281227      -3.01553063
N       -4.12612941      -4.85391244      -1.77136307
C       -4.72847868      -6.04624621      -1.51714003
N       -5.04185528      -6.94673085      -2.51167919
N       -5.63163130      -8.05338926      -2.02366719
N       -5.73753646      -7.89901541      -0.70904769
C       -5.20291966      -6.67509152      -0.38179819
S       -5.15414681      -6.08875324       1.23004245
O       -6.35279734      -6.60574142       1.86686089
O       -3.82846777      -6.42874949       1.71019353
C       -5.30179922      -4.32284364       1.15979160
C       -6.57092696      -3.73558052       1.11232660
C       -6.68345248      -2.34462951       1.05921592
C       -5.53202916      -1.55418364       1.06330200
C       -4.26912309      -2.13956391       1.14203230
C       -4.15105402      -3.52918358       1.20126675
C       -4.78099790      -6.69974119      -3.86009234
C       -5.08168346      -7.63225962      -4.85509157
C       -4.76872764      -7.32566911      -6.17835854
C       -4.16096656      -6.10753914      -6.49304886
C       -3.86479478      -5.17909526      -5.48842521
C       -4.18722168      -5.46589454      -4.15782499
H       -0.17872883      -2.73056603      -0.01201556
H       -1.60471768      -4.14706682      -1.41529231
H       -3.20489323      -0.63120771      -3.33534603
H       -1.78174158       0.78362315      -1.91999924
H       -3.61002474      -2.84127943      -4.18686638
H       -7.47010875      -4.34804038       1.11692890
H       -7.66809905      -1.88656813       1.01568825
H       -3.37199967      -1.52493700       1.14885262
H       -3.16276205      -3.98105669       1.25175471
H       -5.54147305      -8.58904755      -4.61710975
H       -4.98810599      -8.04259783      -6.96717981
H       -3.90654338      -5.88553641      -7.52795723
H       -3.36490945      -4.25851320      -5.77234656
C       -5.64715194      -0.12098940       0.98392294
C       -5.74356727       1.07931077       0.91744298
Br      -5.89946271       3.02009462       0.80995051
C       -0.88095087       0.88095087       0.88095087
C       -2.25067172       0.64557239       0.94517207
C       -3.05296825       1.44781062       1.76245067
C       -2.50553536       2.50617872       2.49958834
C       -1.12081911       2.71766531       2.42827269
C       -0.30988983       1.91004616       1.62373518
N       -3.28492024       3.32453772       3.33659162
C       -4.45867994       2.97630576       3.97512577
N       -4.68260241       1.73417248       4.33463003
C       -5.81107089       1.44478747       5.03600655
N       -6.75731064       2.39703070       5.34592398
N       -7.78468418       1.87977287       6.04423069
N       -7.53029803       0.58923261       6.22606892
C       -6.32443853       0.30684407       5.62852677
S       -5.62924867      -1.26179479       5.64540371
O       -6.01865548      -1.84452929       6.91755167
O       -6.02157770      -1.85676497       4.38221100
C       -3.86693768      -1.06389594       5.66180952
C       -3.20144015      -0.88713472       6.87987546
C       -1.81341628      -0.73373830       6.88918808
C       -1.10303075      -0.76730012       5.68718016
C       -1.76401204      -0.97460898       4.47725164
C       -3.15064315      -1.13440660       4.46273430
C       -6.62496054       3.73685535       4.97901553
C       -7.60395841       4.68652114       5.27855509
C       -7.41396431       6.00157026       4.85722073
C       -6.26449246       6.35246456       4.14459753
C       -5.28856349       5.39327092       3.85048084
C       -5.45770799       4.07291497       4.28031826
H       -2.70652685      -0.15692398       0.37170756
H       -4.12145396       1.24709206       1.79853080
H       -0.65276640       3.50591153       3.01276904
H        0.76154778       2.08997411       1.58969134
H       -2.88605764       4.23525105       3.51686186
H       -3.75084593      -0.86836055       7.81873486
H       -1.29514643      -0.58976668       7.83359917
H       -1.21149845      -1.00446051       3.54104611
H       -3.66250055      -1.28515358       3.51471705
H       -8.50864303       4.41880580       5.82018153
H       -8.16911161       6.75458464       5.07418737
H       -6.13423629       7.37907451       3.80672621
H       -4.42585369       5.70144080       3.26847471
C        0.32533551      -0.58476554       5.69431944
C        1.52159224      -0.43189282       5.70029859
Br       3.45583821      -0.18471057       5.70996636
C        0.88095087      -0.88095087       0.88095087
C        0.99175893      -0.60880836       2.24084889
C        1.79100978      -1.42527320       3.04694657
C        2.50733146      -2.50006823       2.50390272
C        2.37152891      -2.76244468       1.13278352
C        1.56245740      -1.95840354       0.32281024
N        3.31211100      -3.34385661       3.29008198
C        3.15188289      -3.62596806       4.63226053
N        1.96087391      -3.60742262       5.18310839
C        1.83235491      -3.97294985       6.48656016
N        2.91129096      -4.31832186       7.27065250
N        2.54209412      -4.64348469       8.52310894
N        1.21974111      -4.53997726       8.58588119
C        0.76667931      -4.14357202       7.34955804
S       -0.89750910      -3.90154624       7.00882045
O       -1.60459716      -4.88072626       7.81554876
O       -1.10937490      -2.47692120       7.17947743
C       -1.15919183      -4.31889872       5.30514437
C       -1.40331799      -5.64954914       4.94794974
C       -1.61104307      -5.97422092       3.60568822
C       -1.58257078      -4.96962538       2.63585619
C       -1.37012970      -3.63985325       2.99693116
C       -1.16777781      -3.30891322       4.33783543
C        4.21942118      -4.33628940       6.78512085
C        5.30627446      -4.66464640       7.59811378
C        6.58723386      -4.63633004       7.04919141
C        6.77091414      -4.27990625       5.71073416
C        5.67473495      -3.95366040       4.90391990
C        4.38178087      -3.99284573       5.43631462
H        0.46182962       0.22804382       2.68752463
H        1.86405304      -1.19538516       4.10763861
H        2.88268083      -3.60857068       0.68019547
H        1.46857922      -2.18554977      -0.73601132
H        4.03738485      -3.82448023       2.77630547
H       -1.43398121      -6.43342229       5.70177915
H       -1.79434803      -7.00812989       3.32519706
H       -1.35126886      -2.85631089       2.24304203
H       -0.99178901      -2.27115663       4.61269640
H        5.17355323      -4.92909265       8.64498446
H        7.44778545      -4.88145921       7.66863896
H        7.77726757      -4.24572095       5.29704849
H        5.86443015      -3.65284202       3.87849704
C       -1.77248194      -5.30766236       1.24903798
C       -1.93153254      -5.59076833       0.08757773
Br      -2.18870391      -6.04852675      -1.79040526
