174
Properties=species:S:1:pos:R:3 pbc="F F F"
C        5.79866728      -0.38904637      -4.58094232
C        5.94352700       0.58851281      -5.73337167
O        5.41071531       1.86726431      -5.37142143
C        6.28767907       2.69683062      -4.72580849
C        5.95975005       3.91061752      -4.25204347
S        4.36411780       4.51470543      -4.40294123
O        4.22017993       5.81044938      -3.76573963
O        3.91052908       4.36695945      -5.77585663
C        3.38290220       3.41180794      -3.39374826
C        2.35193917       2.66621025      -3.97355396
C        1.55375847       1.85346612      -3.16573963
C        1.79174882       1.79174882      -1.79174882
C        2.81828682       2.53876442      -1.21292021
C        3.61379674       3.36056821      -2.01335024
S        7.15533317       4.81696725      -3.42196403
O        6.66864061       5.17762729      -2.10239050
O        8.44177162       4.14165064      -3.51842200
C        7.33790700       6.31574973      -4.37213338
C        6.67711221       7.48361667      -3.97909545
C        6.82961894       8.65146756      -4.72893441
C        7.67447720       8.65663977      -5.83799946
Br       7.88164007      10.24002625      -6.84935679
C        8.37388014       7.50566439      -6.20346268
C        8.20827591       6.32917422      -5.46864079
H        6.15742897      -1.38160454      -4.86757664
H        4.75026938      -0.46723225      -4.27432807
H        6.36289119      -0.05223149      -3.70550386
H        5.35534515       0.22834763      -6.58427372
H        6.98371529       0.66433609      -6.07341069
H        7.28480110       2.28286011      -4.61909771
H        2.15346037       2.72225347      -5.04192914
H        0.74329043       1.28329331      -3.61350925
H        2.99460617       2.50157893      -0.14032215
H        4.38578489       3.96792102      -1.54550630
H        6.02603638       7.49542571      -3.10618189
H        6.28597244       9.54741163      -4.43875195
H        9.05115051       7.51795966      -7.05402657
H        8.77037695       5.44160094      -5.75101719
C       -1.71287133      -7.10253555      -1.17515635
C       -3.08935295      -7.49485610      -1.68120243
O       -3.60270919      -6.48725199      -2.55943987
C       -3.22553276      -6.61564525      -3.86914017
C       -3.55258280      -5.73765282      -4.83217543
S       -4.47097690      -4.33699198      -4.47379559
O       -4.65011737      -3.50039909      -5.64585250
O       -5.64668234      -4.70437084      -3.70229198
C       -3.40615661      -3.37939655      -3.40290524
C       -3.81988899      -3.06759283      -2.10422156
C       -3.00662311      -2.26908847      -1.29725263
C       -1.79174882      -1.79174882      -1.79174882
C       -1.38088575      -2.10002785      -3.08905785
C       -2.19355210      -2.88986960      -3.90429348
S       -2.96625947      -6.00729624      -6.42070874
O       -2.23128208      -4.84095438      -6.87642194
O       -2.30770098      -7.30413013      -6.49001314
C       -4.42890661      -6.16745448      -7.42942902
C       -4.90115120      -5.07514902      -8.16352411
C       -6.04532630      -5.21296911      -8.95172550
C       -6.68277183      -6.45004117      -9.03630343
Br      -8.22966746      -6.63456792     -10.10678773
C       -6.18476756      -7.55449722      -8.34374243
C       -5.05244891      -7.41629361      -7.53734841
H       -1.33596097      -7.84319784      -0.46424226
H       -1.75024799      -6.12582376      -0.68129344
H       -0.99972159      -7.01544207      -2.00099990
H       -3.77838189      -7.55751368      -0.83207094
H       -3.08034204      -8.48241977      -2.15870026
H       -2.62330788      -7.49598875      -4.06746230
H       -4.77273002      -3.42541850      -1.71949445
H       -3.33338056      -2.01500707      -0.29170536
H       -0.44094065      -1.71634448      -3.47922212
H       -1.88111476      -3.09129060      -4.92680685
H       -4.40309967      -4.10779487      -8.11674945
H       -6.42813657      -4.35101382      -9.49298564
H       -6.66873770      -8.52435844      -8.43004060
H       -4.66181746      -8.28665918      -7.01451844
C       -1.98069376       7.06751369       0.94235578
C       -3.35029978       7.42228975       1.49282194
O       -3.77882846       6.43423736       2.43633522
C       -3.35139143       6.63815511       3.72077164
C       -3.59618148       5.79138938       4.73484018
S       -4.46477665       4.33738409       4.47960372
O       -4.55475725       3.54783598       5.69377572
O       -5.68830475       4.61802616       3.74701425
C       -3.40508378       3.37930184       3.40407279
C       -3.86020661       2.99124892       2.14024785
C       -3.04733713       2.19300110       1.33262599
C       -1.79174882       1.79174882       1.79174882
C       -1.33938940       2.17609713       3.05448493
C       -2.15090887       2.96610045       3.87070586
S       -2.95431881       6.15800239       6.28194325
O       -2.14810864       5.04652441       6.75402534
O       -2.35288008       7.48399778       6.26496640
C       -4.37757750       6.30013799       7.34807462
C       -4.76748775       5.22279646       8.14954013
C       -5.88145762       5.34645330       8.98210998
C       -6.57009323       6.55726311       9.04176010
Br      -8.07585969       6.72286536      10.17229806
C       -6.15322309       7.64973311       8.28005100
C       -5.05185827       7.52435377       7.42987889
H       -1.66897234       7.79082052       0.18360821
H       -1.99511929       6.06870335       0.49354255
H       -1.22916580       7.04899864       1.73799912
H       -4.07765650       7.41640731       0.67390269
H       -3.36538642       8.42995741       1.92611825
H       -2.78168385       7.55188976       3.85318531
H       -4.84409399       3.28957216       1.78397682
H       -3.40555564       1.87962807       0.35490928
H       -0.36696361       1.85165428       3.41788937
H       -1.80385724       3.22706521       4.86828977
H       -4.22856610       4.27683908       8.12223881
H       -6.20092652       4.49414069       9.57706881
H       -6.67648989       8.60059651       8.34605034
H       -4.72416544       8.38623548       6.85259416
C        5.09813457       0.45223583       5.34466450
C        5.23590961      -0.64929168       6.38021019
O        4.93049429      -1.92113586       5.79777090
C        5.98388618      -2.54312134       5.18331066
C        5.88446983      -3.71117111       4.52677011
S        4.38006253      -4.51750070       4.38420123
O        4.49241161      -5.72166613       3.58229121
O        3.74890309      -4.61460836       5.68983371
C        3.38555513      -3.41280896       3.39009432
C        2.20013629      -2.88288269       3.90868440
C        1.40111984      -2.06906365       3.10278072
C        1.79174882      -1.79174882       1.79174882
C        2.97289328      -2.32373462       1.27334355
C        3.77141058      -3.14577210       2.07053250
S        7.28382265      -4.34513350       3.76530831
O        7.01315329      -4.57764064       2.35786447
O        8.44474195      -3.53976325       4.11733906
C        7.55431209      -5.92695784       4.54452017
C        7.11161318      -7.10089225       3.92731890
C        7.33131508      -8.33351417       4.54519166
C        8.02951701      -8.38888478       5.75071465
Br       8.32841208     -10.05931839       6.58329264
C        8.51580291      -7.22314753       6.34405677
C        8.28023610      -5.98565943       5.74019539
H        5.28062541       1.43206997       5.79484563
H        4.09340157       0.44512703       4.90909066
H        5.80419007       0.30864455       4.52061804
H        4.50604883      -0.48226077       7.17965690
H        6.22823145      -0.64542042       6.84781021
H        6.92050105      -2.00167950       5.26457838
H        1.88429680      -3.10804634       4.92529983
H        0.47237921      -1.66706996       3.50064381
H        3.27003195      -2.11919758       0.24727772
H        4.66981466      -3.58619961       1.64319795
H        6.57790742      -7.07125760       2.97847897
H        6.95423490      -9.24007523       4.07782590
H        9.08124901      -7.27027789       7.27160983
H        8.67754562      -5.08404386       6.20140560
C       -0.00445707       0.01189536      -1.78238275
H       -0.66409135       0.67374010      -2.43557963
H        0.65740317      -0.63156657      -2.45157240
C       -0.90989263      -0.90692880      -0.91072765
C        0.90977584       0.90977584      -0.90977584
C       -0.00465871       1.77757030       0.00794375
H       -0.66225468       2.44313916      -0.64384735
H        0.64322798       2.43503045       0.67728295
C       -1.78241447       0.00034974      -0.00472694
H       -2.45427497      -0.65498947       0.64260836
H       -2.43311707       0.67328779      -0.65473579
C       -0.91132561       0.90220522       0.91563759
C       -0.01476271      -0.02253852       1.78660255
H       -0.67934791      -0.69751639       2.42135241
H        0.63392994       0.61504881       2.47327442
C        0.01484550      -1.77751727      -0.01636693
H        0.67870853      -2.42144646      -0.68295456
H       -0.62264859      -2.45592969       0.64226336
C        1.78714474       0.01002794       0.00389507
H        2.44202412       0.67113390       0.66197326
H        2.45385902      -0.65136977      -0.64189061
C        0.91606151      -0.90478549       0.90901405
