161
Properties=species:S:1:pos:R:3 pbc="F F F"
C        0.00000000       0.00000000       0.00000000
C        4.88876326      -1.29895040      -3.67103830
C        5.03362297      -0.32139121      -4.82346764
O        4.50081128       0.95736029      -4.46151740
C        5.37777504       1.78692660      -3.81590446
C        5.04984603       3.00071349      -3.34213945
S        3.45421378       3.60480141      -3.49303720
O        3.31027591       4.90054536      -2.85583561
O        3.00062505       3.45705543      -4.86595261
C        2.47299818       2.50190392      -2.48384424
C        1.44203514       1.75630623      -3.06364994
C        0.64385444       0.94356210      -2.25583560
C        0.88184480       0.88184480      -0.88184480
C        1.90838280       1.62886040      -0.30301618
C        2.70389271       2.45066418      -1.10344621
S        6.24542915       3.90706322      -2.51206001
O        5.75873658       4.26772327      -1.19248648
O        7.53186759       3.23174662      -2.60851797
C        6.42800297       5.40584571      -3.46222935
C        5.76720819       6.57371265      -3.06919143
C        5.91971492       7.74156353      -3.81903039
C        6.76457318       7.74673575      -4.92809543
C        7.46397612       6.59576037      -5.29355865
C        7.29837189       5.41927020      -4.55873676
H        5.24752495      -2.29150856      -3.95767261
H        3.84036535      -1.37713628      -3.36442404
H        5.45298717      -0.96213552      -2.79559983
H        4.44544113      -0.68155639      -5.67436970
H        6.07381126      -0.24556793      -5.16350667
H        6.37489708       1.37295608      -3.70919369
H        1.24355635       1.81234944      -4.13202511
H       -0.16661360       0.37338928      -2.70360522
H        2.08470215       1.59167491       0.76958188
H        3.47588087       3.05801700      -0.63560228
H        5.11613236       6.58552168      -2.19627787
H        5.37606841       8.63750761      -3.52884793
H        8.14124649       6.60805564      -6.14412254
H        7.86047293       4.53169692      -4.84111316
C        6.92239448       8.95299496      -5.69857006
C        7.05456983       9.96323705      -6.34384256
Br       7.26828618      11.59671307      -7.38719362
C       -5.93256962      -1.88607618       0.55779464
C       -6.58855046      -2.16446233      -0.78268661
O       -5.60676851      -2.57027414      -1.74264633
C       -5.32304127      -3.90950201      -1.74806283
C       -4.38808953      -4.47377681      -2.53083263
S       -3.43590720      -3.52434239      -3.59180280
O       -2.44934721      -4.32806761      -4.28924207
O       -4.29485596      -2.65275174      -4.37602539
C       -2.47210521      -2.48537126      -2.50126987
C       -2.59363325      -1.09435844      -2.57399962
C       -1.79268262      -0.29128082      -1.75928870
C       -0.88184480      -0.88184480      -0.88184480
C       -0.75819010      -2.26990437      -0.81216491
C       -1.54906799      -3.07825540      -1.63067972
S       -4.11199831      -6.16033557      -2.39221850
O       -2.71034274      -6.40539543      -2.10320816
O       -5.10850162      -6.75259740      -1.51103317
C       -4.46531019      -6.81853413      -4.01223372
C       -3.42489463      -7.07466708      -4.91055055
C       -3.71312499      -7.59241171      -6.17477213
C       -5.03129908      -7.89208255      -6.51602273
C       -6.06617360      -7.68387226      -5.60324928
C       -5.78512905      -7.14645920      -4.34479060
H       -6.66896462      -1.52693826       1.28221389
H       -5.14592843      -1.13184459       0.45011990
H       -5.45786311      -2.78726172       0.95867335
H       -7.03865741      -1.23983757      -1.15975944
H       -7.39726138      -2.90033946      -0.69414915
H       -5.92017534      -4.48679105      -1.05008046
H       -3.29192993      -0.62920180      -3.26679917
H       -1.87689787       0.79090362      -1.82438666
H       -0.03843315      -2.72964249      -0.13871955
H       -1.41632513      -4.15754765      -1.59562737
H       -2.38992082      -6.85823865      -4.64977244
H       -2.90358558      -7.75691968      -6.88191869
H       -7.09052141      -7.94091603      -5.86198723
H       -6.59607549      -7.00329728      -3.63391024
C       -5.32606412      -8.42837640      -7.81951898
C       -5.57292985      -8.87752250      -8.91119709
Br      -5.97209085      -9.60375375     -10.67634827
C        1.29541033       4.90299364       3.65326785
C        0.11835271       5.84979782       3.80425430
O       -1.11535940       5.13593663       3.66839296
C       -1.58627924       4.57121210       4.82311478
C       -2.69270391       3.81170806       4.88828700
S       -3.60689306       3.46262181       3.48253752
O       -4.71774450       2.57545240       3.77345998
O       -3.87762797       4.69124399       2.75476113
C       -2.50310982       2.47784567       2.47779085
C       -2.12582584       2.92743132       1.20873415
C       -1.31148597       2.12283607       0.40893011
C       -0.88184480       0.88184480       0.88184480
C       -1.26155123       0.43187214       2.14683602
C       -2.08327966       1.22707915       2.94764430
S       -3.13258353       3.13217306       6.39979578
O       -3.25582250       1.69109447       6.27202936
O       -2.26784418       3.65716929       7.44711872
C       -4.75115520       3.79627586       6.74864698
C       -5.89614176       3.04350644       6.47046406
C       -7.15763170       3.57242376       6.75025338
C       -7.26507460       4.82839005       7.34593971
C       -6.12231819       5.56083166       7.67014529
C       -4.85864224       5.04475772       7.37297889
H        2.24125844       5.44952056       3.70542688
H        1.24358794       4.37720341       2.69403765
H        1.28908970       4.13869564       4.43684555
H        0.14818944       6.58947139       2.99697249
H        0.16294551       6.40593716       4.74875835
H       -0.97730401       4.78445354       5.69528929
H       -2.47012367       3.88767942       0.83012781
H       -1.02819727       2.46558577      -0.58340213
H       -0.93842575      -0.54123102       2.50960045
H       -2.40453842       0.84902547       3.91593626
H       -5.82407062       2.05524879       6.01861251
H       -8.04567862       2.99703224       6.49971309
H       -6.20708628       6.52942851       8.15690987
H       -3.97321790       5.61549708       7.64456802
C       -8.56704170       5.37093826       7.63597954
C       -9.65743915       5.82532239       7.87888790
Br     -11.42051960       6.56002309       8.27165017
C       -1.06524061      -5.44116186       2.88492992
C        0.19793840      -6.26111521       3.07664580
O        1.33849812      -5.40167216       3.17951870
C        1.60115834      -4.93869147       4.44075630
C        2.58788459      -4.07407984       4.73073454
S        3.60256675      -3.44893191       3.50055373
O        4.55208287      -2.48664677       4.02792723
O        4.10707052      -4.53700670       2.67955586
C        2.50275039      -2.47499891       2.48099703
C        2.33061454      -2.79947555       1.13190122
C        1.51587713      -1.99658352       0.33079149
C        0.88184480      -0.88184480       0.88184480
C        1.05677592      -0.55619865       2.22728481
C        1.87749096      -1.34913520       3.03137695
S        2.76528281      -3.54670647       6.35256310
O        2.71826312      -2.09641832       6.40426489
O        1.86194213      -4.29418511       7.21600495
C        4.40547828      -4.06352533       6.82707442
C        5.46965745      -3.15765317       6.78280164
C        6.74854961      -3.57261808       7.15914114
C        6.94683073      -4.87391032       7.61866331
C        5.87709721      -5.76533728       7.71086065
C        4.59963343      -5.36107089       7.31567452
H       -1.93392396      -6.09271521       2.75489775
H       -0.97305617      -4.79545281       2.00525648
H       -1.24405922      -4.78662971       3.74388100
H        0.35312142      -6.89101511       2.19411790
H        0.11838475      -6.93405318       3.93931207
H        0.93001426      -5.32795571       5.19907688
H        2.83431858      -3.65909198       0.69452035
H        1.39171657      -2.24031413      -0.72164979
H        0.57408758       0.32047662       2.65318422
H        2.03729517      -1.06329337       4.06891160
H        5.32403411      -2.13446874       6.43942906
H        7.57890489      -2.87394531       7.08957375
H        6.02881492      -6.77214781       8.09246193
H        3.76890655      -6.05753461       7.40684184
C        8.26619154      -5.29905960       8.00870836
C        9.37115622      -5.65512212       8.33537110
Br      11.15779065      -6.23084511       8.86355710
