94
Properties=species:S:1:pos:R:3 pbc="F F F"
C       -0.61040501       5.90072174      -4.64737954
O        0.03137945       4.85095688      -3.91933082
C        1.36703490       4.76704249      -4.13518514
O        2.02143430       5.48879513      -4.87030148
C        1.95984076       3.65710495      -3.34166774
C        1.18669338       2.82498431      -2.52091290
C        1.79587990       1.79587990      -1.79587990
C        3.17459794       1.59042742      -1.88592494
O        3.75411252       0.57819538      -1.16842039
C        3.94342183       2.42120747      -2.70578081
Br       5.81804932       2.17228676      -2.85224686
C        3.34321985       3.44974417      -3.43264701
H       -1.66992440       5.89852893      -4.37942136
H       -0.52351273       5.72566667      -5.72391358
H       -0.18613571       6.87206715      -4.37571244
H        0.11160411       2.97250628      -2.44086462
H        4.71098961       0.58472775      -1.35150545
H        3.94661788       4.09455740      -4.06994497
C       -2.97218339      -6.92486255      -0.04065032
O       -2.68444778      -5.60590973      -0.51130963
C       -3.23075712      -5.31996977      -1.71853565
O       -3.91401073      -6.07342899      -2.39309119
C       -2.89020565      -3.93310890      -2.13529890
C       -2.08460534      -3.09172345      -1.35626180
C       -1.79587990      -1.79587990      -1.79587990
C       -2.30588976      -1.33367950      -3.01138103
O       -2.01322208      -0.06172100      -3.42578521
C       -3.10849128      -2.17500810      -3.78691072
Br      -3.81885812      -1.58134340      -5.44238142
C       -3.40077017      -3.46923226      -3.35560860
H       -2.51382845      -7.03906991       0.94487246
H       -2.54060539      -7.67180047      -0.71366166
H       -4.05203045      -7.06995201       0.06033856
H       -1.67980558      -3.43778410      -0.40738533
H       -2.44918396       0.08634432      -4.28438318
H       -4.02681353      -4.12092606      -3.96338066
C       -7.08862395       0.31052274       2.53854957
O       -5.72734040       0.71080062       2.36352613
C       -5.40424372       1.86102867       3.00399014
O       -6.15795390       2.54020332       3.68237369
C       -3.97517894       2.20642937       2.77700514
C       -3.13230949       1.42494892       1.97533218
C       -1.79587990       1.79587990       1.79587990
C       -1.29435359       2.94506507       2.41153164
O        0.01699925       3.29268461       2.22504293
C       -2.13718553       3.72323225       3.20999232
Br      -1.49084479       5.28975768       4.06198047
C       -3.47172467       3.36026035       3.39362601
H       -7.23283533      -0.63549601       2.01068657
H       -7.76313931       1.05604917       2.10687904
H       -7.30982900       0.15324158       3.59857332
H       -3.50869402       0.52728662       1.48899438
H        0.18861694       4.11144987       2.72438989
H       -4.12443506       3.96978069       4.01690450
C        6.52722845       0.34035786       3.75082567
O        5.31125442      -0.22978442       3.26062831
C        5.11421347      -1.51667821       3.63837085
O        5.86575012      -2.18391559       4.33086520
C        3.83039507      -2.03453509       3.09368328
C        2.99261227      -1.25894712       2.28103120
C        1.79587990      -1.79587990       1.79587990
C        1.42963897      -3.10529227       2.11601905
O        0.25391719      -3.61433684       1.63247425
C        2.26726728      -3.87706801       2.92607482
Br       1.80217424      -5.65851737       3.38189133
C        3.46301038      -3.34893807       3.41366257
H        6.57168639       1.37976908       3.41610858
H        7.39010690      -0.19392149       3.34203913
H        6.54424492       0.32743900       4.84483797
H        3.26465490      -0.23753078       2.02278933
H        0.16335840      -4.52936411       1.95450031
H        4.11221297      -3.95422807       4.04467921
C       -0.00445707       0.01189536      -1.78238275
H       -0.66409135       0.67374010      -2.43557963
H        0.65740317      -0.63156657      -2.45157240
C       -0.90989263      -0.90692880      -0.91072765
C        0.90977584       0.90977584      -0.90977584
C       -0.00465871       1.77757030       0.00794375
H       -0.66225468       2.44313916      -0.64384735
H        0.64322798       2.43503045       0.67728295
C       -1.78241447       0.00034974      -0.00472694
H       -2.45427497      -0.65498947       0.64260836
H       -2.43311707       0.67328779      -0.65473579
C       -0.91132561       0.90220522       0.91563759
C       -0.01476271      -0.02253852       1.78660255
H       -0.67934791      -0.69751639       2.42135241
H        0.63392994       0.61504881       2.47327442
C        0.01484550      -1.77751727      -0.01636693
H        0.67870853      -2.42144646      -0.68295456
H       -0.62264859      -2.45592969       0.64226336
C        1.78714474       0.01002794       0.00389507
H        2.44202412       0.67113390       0.66197326
H        2.45385902      -0.65136977      -0.64189061
C        0.91606151      -0.90478549       0.90901405
