186
Properties=species:S:1:pos:R:3 pbc="F F F"
C        1.79165615       1.79165615      -1.79165615
C        2.56249236       2.79770970      -1.21405950
C        3.37112104       3.60282434      -2.02056692
C        3.40853763       3.41155829      -3.41084541
C        2.63220493       2.38539774      -3.97456937
C        1.82293970       1.58114589      -3.16806504
C        4.28917651       4.27115734      -4.28998991
N        3.97143657       5.68621835      -4.19385215
N        4.90022789       6.55619293      -3.73674076
N        4.40189897       7.77990594      -3.85646242
C        3.13936848       7.67997643      -4.39622419
C        2.27465860       8.82604534      -4.65126784
O        1.10911468       8.66992705      -5.00684724
N        2.91128081      10.04243567      -4.47325487
C        2.35302255      11.32672550      -4.64369714
C        0.99118807      11.55602429      -4.84115793
C        0.50834556      12.85320234      -5.02821527
C        1.38412557      13.93859635      -5.02302998
C        2.75537900      13.74042239      -4.80816316
C        3.73787797      14.87824452      -4.81780712
C        3.22384473      12.42536722      -4.61369216
C        2.84796909       6.34573937      -4.63062541
N        1.76279504       5.73407674      -5.16905030
H        2.54338833       2.96295580      -0.13976187
H        3.97066233       4.38350434      -1.55346178
H        2.64915896       2.20238398      -5.04774395
H        1.22596606       0.79319595      -3.62070520
H        4.18851513       3.99955516      -5.34726678
H        5.33937751       4.12796830      -4.01028659
H        3.90433857       9.98654596      -4.25941355
H        0.26704364      10.74785509      -4.84659638
H       -0.55785409      12.99924742      -5.18391188
H        4.73943078      14.54647715      -4.52463344
H        3.43853691      15.65634454      -4.10842835
H        3.81028965      15.30536158      -5.82342631
H        4.28911979      12.26332309      -4.45928806
H        1.49200560       4.79912099      -4.87144396
H        0.93758893       6.32239715      -5.32875423
C        0.82304337      15.24486707      -5.25203560
C        0.35313703      16.33886880      -5.44382781
Br      -0.40666178      18.10777707      -5.75393958
C       -1.79165615      -1.79165615      -1.79165615
C       -2.42156096      -2.90733421      -1.24536639
C       -3.23028879      -3.71265042      -2.05157308
C       -3.40849605      -3.41134500      -3.41110028
C       -2.77354692      -2.27636144      -3.94226368
C       -1.96411632      -1.47184393      -3.13619038
C       -4.29073829      -4.27122528      -4.28836018
N       -3.84982631      -5.65498554      -4.34669522
N       -4.65859896      -6.63988496      -3.89467767
N       -4.07370889      -7.79962893      -4.16492951
C       -2.87753693      -7.54210054      -4.79593163
C       -1.94762067      -8.58059141      -5.22375970
O       -0.83575364      -8.29124919      -5.65888615
N       -2.46294760      -9.85992746      -5.10409630
C       -1.81814383     -11.07020417      -5.43509718
C       -0.46537325     -11.15876330      -5.76423374
C        0.10414789     -12.38725444      -6.10665661
C       -0.67493706     -13.54384939      -6.12696546
C       -2.03291648     -13.48846821      -5.78257985
C       -2.91492537     -14.70548906      -5.81351517
C       -2.58897740     -12.24155100      -5.43237570
C       -2.71965954      -6.17224999      -4.93242434
N       -1.74166566      -5.42291742      -5.50133901
H       -2.29214991      -3.15836299      -0.19559310
H       -3.71875637      -4.58008327      -1.60878881
H       -2.90219062      -2.00759728      -4.98949899
H       -1.47749430      -0.59862192      -3.56375099
H       -4.30853410      -3.90525254      -5.32155044
H       -5.31968882      -4.24684399      -3.91109959
H       -3.43390651      -9.91160129      -4.80479028
H        0.18609090     -10.29095639      -5.75662962
H        1.16038668     -12.42327248      -6.36241941
H       -3.90995648     -14.49067294      -5.40991194
H       -2.48963472     -15.50938037      -5.20429470
H       -3.04212332     -15.05285757      -6.84409666
H       -3.64573662     -12.18946383      -5.17653050
H       -1.52332392      -4.49515780      -5.14408882
H       -0.88843961      -5.91927773      -5.78102297
C       -0.03079165     -14.77085002      -6.51830437
C        0.50868012     -15.79846305      -6.84605071
Br       1.38096036     -17.46002641      -7.37598882
C       -1.79165615       1.79165615       1.79165615
C       -1.37765525       2.11498411       3.08162219
C       -2.18328196       2.92377417       3.88745617
C       -3.41156846       3.40854084       3.41083204
C       -3.80800376       3.08051726       2.10365102
C       -3.00277455       2.27094403       1.29843205
C       -4.28465303       4.29342947       4.27224127
N       -4.68068191       3.65455727       5.51626788
N       -4.30364256       4.19037140       6.69914762
N       -4.88454326       3.48947010       7.66425397
C       -5.63841606       2.49600223       7.08115080
C       -6.40401600       1.51139342       7.83656236
O       -6.94856594       0.56665429       7.27066875
N       -6.45307656       1.78014967       9.19374512
C       -7.11223835       1.02489195      10.18631488
C       -7.66643493      -0.23455600       9.95649137
C       -8.32801915      -0.91769610      10.97944011
C       -8.44610618      -0.34674796      12.24639369
C       -7.88274699       0.90942298      12.51179458
C       -8.00620727       1.57226146      13.85546089
C       -7.21223458       1.58100642      11.46966310
C       -5.53033980       2.59100849       5.70298557
N       -6.09351283       1.87606578       4.69634348
H       -0.43146018       1.74562655       3.46901928
H       -1.84414252       3.17042164       4.89306429
H       -4.74842757       3.45150532       1.69935400
H       -3.32576239       2.02406529       0.29003952
H       -5.21054257       4.57013913       3.75465538
H       -3.74865030       5.21984130       4.50914080
H       -6.01662241       2.65327842       9.48039726
H       -7.59602853      -0.72620587       8.99167245
H       -8.75312313      -1.89595464      10.76813672
H       -7.41326356       2.49150858      13.90576922
H       -7.64131722       0.91272472      14.64926785
H       -9.05023659       1.83908353      14.04975742
H       -6.78385051       2.56234855      11.66553188
H       -5.60318289       1.74539330       3.81399436
H       -6.59824050       1.02451670       4.96598311
C       -9.16678927      -1.09236906      13.24552583
C       -9.77036137      -1.71682674      14.08229901
Br     -10.74628639      -2.72652198      15.43529046
C        1.79165615      -1.79165615       1.79165615
C        2.12204932      -1.37366934       3.07854289
C        2.92676439      -2.18159500       3.88615291
C        3.41213002      -3.40954358       3.40926773
C        3.06017757      -3.81947860       2.11251587
C        2.25637067      -3.01099626       1.30478370
C        4.27461807      -4.29526566       4.28044002
N        5.49818004      -3.64058357       4.71274345
N        5.72505194      -3.43783709       6.03027255
N        6.94594143      -2.93454019       6.15778571
C        7.49684121      -2.81714244       4.90158545
C        8.82721717      -2.27672043       4.64803418
O        9.21557896      -2.06918807       3.50112195
N        9.56067112      -2.06361711       5.80268313
C       10.87370390      -1.55593201       5.89380928
C       11.56612576      -1.00896159       4.81328294
C       12.87501394      -0.54672302       4.96802621
C       13.50942815      -0.62900503       6.20731873
C       12.83178202      -1.15662819       7.31555434
C       13.48459064      -1.28574691       8.66359206
C       11.50889610      -1.61131574       7.14269226
C        6.58850381      -3.27511260       3.96071746
N        6.66114180      -3.39396405       2.61081624
H        1.75852005      -0.42418618       3.46339977
H        3.17382000      -1.84222530       4.89158315
H        3.40909041      -4.77235637       1.71784011
H        1.99569809      -3.34176603       0.30240308
H        4.57792262      -5.20615144       3.75126302
H        3.70848484      -4.60129725       5.16785031
H        9.11513852      -2.37109902       6.66406054
H       11.11614422      -0.91504758       3.83030330
H       13.38988113      -0.12946509       4.10595899
H       12.77035557      -1.61434862       9.42583717
H       13.88543796      -0.32263053       8.99524130
H       14.29093116      -2.02540148       8.62274491
H       10.98164923      -2.03401733       7.99606438
H        5.82697713      -3.30051630       2.03507711
H        7.47222173      -2.96070284       2.15581574
C       14.86913611      -0.16194555       6.28886439
C       16.00789153       0.22921677       6.35715887
Br      17.84916273       0.86169315       6.46758528
C       -0.00445707       0.01189536      -1.78238275
H       -0.66409135       0.67374010      -2.43557963
H        0.65740317      -0.63156657      -2.45157240
C       -0.90989263      -0.90692880      -0.91072765
C        0.90977584       0.90977584      -0.90977584
C       -0.00465871       1.77757030       0.00794375
H       -0.66225468       2.44313916      -0.64384735
H        0.64322798       2.43503045       0.67728295
C       -1.78241447       0.00034974      -0.00472694
H       -2.45427497      -0.65498947       0.64260836
H       -2.43311707       0.67328779      -0.65473579
C       -0.91132561       0.90220522       0.91563759
C       -0.01476271      -0.02253852       1.78660255
H       -0.67934791      -0.69751639       2.42135241
H        0.63392994       0.61504881       2.47327442
C        0.01484550      -1.77751727      -0.01636693
H        0.67870853      -2.42144646      -0.68295456
H       -0.62264859      -2.45592969       0.64226336
C        1.78714474       0.01002794       0.00389507
H        2.44202412       0.67113390       0.66197326
H        2.45385902      -0.65136977      -0.64189061
C        0.91606151      -0.90478549       0.90901405
