173
Properties=species:S:1:pos:R:3 pbc="F F F"
C        0.00000000       0.00000000       0.00000000
C        2.75700811       3.86460957      -4.43079065
O        3.33869134       3.20916896      -3.30731478
C        2.48985028       2.47422854      -2.52013728
C        1.10873577       2.69580865      -2.45001767
C        0.30529983       1.90036257      -1.63133116
C        0.88176373       0.88176373      -0.88176373
C        2.25733045       0.65699518      -0.93359800
C        3.08703980       1.46652036      -1.73427999
C        4.57713596       1.20049992      -1.85074890
N        5.18739795       0.71883286      -0.62061748
N        5.49639602      -0.59078163      -0.48537897
N        6.06089754      -0.75049658       0.70442929
C        6.10914346       0.47638519       1.32896666
C        6.63531410       0.67906015       2.67133610
O        6.44299623       1.72802307       3.27873992
N        7.38823709      -0.39043047       3.13157447
C        8.01567133      -0.48948257       4.38930587
C        7.66491494       0.30417857       5.48156904
C        8.33542362       0.17155472       6.69957169
C        9.37621440      -0.74786240       6.83309097
Br      10.25372439      -0.83957029       8.51483882
C        9.74640318      -1.56131865       5.75228731
C       10.88509613      -2.53860287       5.84248572
C        9.03816157      -1.43582424       4.54030185
C        5.58727440       1.43997939       0.47813964
N        5.46613559       2.78261459       0.59357621
H        3.57274296       4.25184356      -5.04887094
H        2.14635435       4.71708498      -4.11751721
H        2.17703619       3.16511216      -5.04268104
H        0.62703862       3.48586560      -3.01759938
H       -0.76592478       2.08125186      -1.59084188
H        2.67938244      -0.15885656      -0.34885149
H        5.13108252       2.10715488      -2.11851139
H        4.75402636       0.45375231      -2.63302275
H        7.58369775      -1.11256260       2.44563419
H        6.85440823       1.02521323       5.42609809
H        8.03642309       0.79881874       7.53597845
H       11.03556010      -3.06951614       4.89660205
H       10.68781081      -3.28998821       6.61328733
H       11.81878432      -2.01323062       6.07010907
H        9.32063585      -2.06148894       3.69610011
H        4.85260673       3.34377018       0.00783333
H        5.66417244       3.21508390       1.50076225
C       -3.13721942      -4.66503816      -3.25015075
O       -3.24349056      -3.24866174      -3.36302277
C       -2.46784969      -2.50658276      -2.50978366
C       -1.97987162      -2.98672292      -1.28796754
C       -1.18761398      -2.17492334      -0.47445623
C       -0.88176373      -0.88176373      -0.88176373
C       -1.37003690      -0.38693801      -2.09094872
C       -2.19236234      -1.18307079      -2.91240702
C       -2.68441655      -0.68464783      -4.25932040
N       -2.97859431       0.74022253      -4.28847651
N       -2.11398284       1.59851980      -4.87553032
N       -2.63359841       2.81598222      -4.78835549
C       -3.84400329       2.72451551      -4.13707420
C       -4.68505655       3.87288633      -3.83086793
O       -5.62607207       3.78204545      -3.04825276
N       -4.33671176       5.01161382      -4.54113420
C       -4.95781928       6.27324310      -4.45230670
C       -5.76272795       6.65350308      -3.37829959
C       -6.36587469       7.91300730      -3.35453926
C       -6.18181780       8.80115306      -4.41459628
Br      -7.06454053      10.47968935      -4.31446410
C       -5.37411194       8.44604821      -5.50473349
C       -5.17866541       9.35820760      -6.68354973
C       -4.74822381       7.18332491      -5.49713658
C       -4.10128852       1.39365292      -3.84147855
N       -5.16375382       0.77987308      -3.27129324
H       -3.66697344      -5.10692618      -4.09955785
H       -3.61960170      -5.02518229      -2.33617256
H       -2.09250796      -4.99060335      -3.30171808
H       -2.20411132      -3.98923108      -0.93716120
H       -0.81214628      -2.56308866       0.46906598
H       -1.10044969       0.62392618      -2.39285387
H       -3.61233624      -1.18281450      -4.56159805
H       -1.92645275      -0.89095965      -5.02338903
H       -3.63768636       4.87676482      -5.26457942
H       -5.92512202       5.99862968      -2.52703104
H       -6.98286964       8.18507086      -2.50146460
H       -4.53179063       8.90356292      -7.44121421
H       -4.70972382      10.29637615      -6.37118760
H       -6.14021550       9.56866527      -7.16389440
H       -4.12187232       6.89904912      -6.34022359
H       -5.13124948      -0.16383798      -2.89345613
H       -5.89283486       1.35988374      -2.84554297
C       -4.49253878       2.79549816       3.76437139
O       -3.29951417       3.34422921       3.21143170
C       -2.51907625       2.49259930       2.47254055
C       -2.54222517       1.09932160       2.61301531
C       -1.72408049       0.29449430       1.81841876
C       -0.88176373       0.88176373       0.88176373
C       -0.84051851       2.26857985       0.73882528
C       -1.64007004       3.09767784       1.55009227
C       -1.65412027       4.60494143       1.36932308
N       -0.36378576       5.16563470       0.99742783
N       -0.13124868       5.54065416      -0.28090949
N        1.09660626       6.03968213      -0.33710419
C        1.64677846       5.97900034       0.92434011
C        3.00231536       6.40965759       1.23569592
O        3.53243673       6.12054693       2.30416918
N        3.56958796       7.19336494       0.24245517
C        4.86504306       7.74746351       0.25446243
C        5.88478870       7.28555111       1.08676206
C        7.14518483       7.88693097       1.06566052
C        7.39429196       8.96880961       0.22074338
Br       9.12621161       9.74577987       0.27974702
C        6.38829289       9.45052515      -0.62943504
C        6.60340107      10.63593705      -1.52852844
C        5.13215655       8.81158826      -0.61739623
C        0.71006113       5.45548382       1.80369147
N        0.73610969       5.25044908       3.14083459
H       -5.08514330       3.62382156       4.16449261
H       -4.26758497       2.11880145       4.59457012
H       -5.09292384       2.29520486       2.99670069
H       -3.18378468       0.60852203       3.33819689
H       -1.75643479      -0.78583503       1.93556920
H       -0.18371194       2.70038079      -0.01471536
H       -1.94443598       5.12110838       2.29120444
H       -2.37784213       4.87196689       0.59099240
H        2.94142507       7.47159435      -0.50466832
H        5.73882536       6.43979438       1.75255436
H        7.92311899       7.50179630       1.72058607
H        5.70194237      10.87420082      -2.10281654
H        7.40602415      10.43551102      -2.24495159
H        6.85186770      11.52219140      -0.93487907
H        4.34540610       9.18063906      -1.27218616
H        0.08284723       4.64256608       3.62882474
H        1.62507747       5.36748608       3.63608548
C        3.60561889      -2.87475388       4.57203557
O        3.35863964      -3.27073700       3.22579843
C        2.51696362      -2.47042150       2.49683099
C        1.55815423      -1.62595126       3.07045660
C        0.74102496      -0.83237321       2.26359539
C        0.88176373      -0.88176373       0.88176373
C        1.82501066      -1.72631182       0.29660115
C        2.64032476      -2.55338933       1.09412604
C        3.71327781      -3.43474367       0.48036329
N        3.34894159      -3.99166317      -0.81375647
N        3.86942586      -3.46863756      -1.94707007
N        3.40052495      -4.17370530      -2.96825857
C        2.57231361      -5.15626479      -2.47201641
C        1.85013451      -6.10290480      -3.31000116
O        0.94757960      -6.79781175      -2.85311197
N        2.32413585      -6.15410508      -4.61200879
C        1.82402381      -6.96387449      -5.65101542
C        0.55825549      -7.54940313      -5.62013415
C        0.12406077      -8.35701595      -6.67367006
C        0.95953216      -8.59997613      -7.76424726
Br       0.30069212      -9.73532322      -9.13670007
C        2.23526381      -8.02035070      -7.82281730
C        3.18041158      -8.28504223      -8.96144627
C        2.64463528      -7.18304916      -6.76564895
C        2.55614259      -5.07982954      -1.08685799
N        1.95655537      -5.84168955      -0.14307094
H        4.41929149      -3.49661557       4.95755041
H        2.72824425      -3.05054740       5.20216489
H        3.92935036      -1.82958812       4.62589091
H        1.41808062      -1.56712235       4.14530064
H        0.00445183      -0.17825749       2.72345964
H        1.92508446      -1.73195364      -0.78766073
H        3.94341104      -4.29625949       1.11707827
H        4.63368060      -2.85369214       0.35342868
H        3.17779156      -5.63316026      -4.78545086
H       -0.12919923      -7.37924248      -4.79651987
H       -0.87002333      -8.79513412      -6.62584741
H        4.13232611      -7.76136344      -8.82424763
H        2.74991005      -7.94187247      -9.90724725
H        3.40657185      -9.35476212      -9.02588934
H        3.63385433      -6.73134365      -6.80215118
H        1.82542211      -5.54289819       0.82022329
H        1.27583373      -6.54581997      -0.44315961
