194
Properties=species:S:1:pos:R:3 pbc="F F F"
C        3.66691214       4.77451360      -5.34069467
O        4.24859536       4.11907298      -4.21721880
C        3.39975431       3.38413257      -3.43004131
C        2.01863980       3.60571267      -3.35992169
C        1.21520385       2.81026660      -2.54123518
C        1.79166776       1.79166776      -1.79166776
C        3.16723448       1.56689920      -1.84350203
C        3.99694382       2.37642438      -2.64418401
C        5.48703998       2.11040394      -2.76065293
N        6.09730197       1.62873688      -1.53052151
N        6.40630004       0.31912239      -1.39528299
N        6.97080157       0.15940745      -0.20547473
C        7.01904748       1.38628921       0.41906263
C        7.54521812       1.58896418       1.76143208
O        7.35290025       2.63792709       2.36883590
N        8.29814111       0.51947355       2.22167045
C        8.92557535       0.42042145       3.47940185
C        8.57481896       1.21408260       4.57166502
C        9.24532764       1.08145875       5.78966767
C       10.28611843       0.16204162       5.92318694
Br      11.16362841       0.07033373       7.60493479
C       10.65630721      -0.65141463       4.84238329
C       11.79500016      -1.62869884       4.93258170
C        9.94806559      -0.52592021       3.63039783
C        6.49717843       2.34988342      -0.43176438
N        6.37603961       3.69251862      -0.31632782
H        4.48264699       5.16174759      -5.95877497
H        3.05625838       5.62698901      -5.02742123
H        3.08694021       4.07501618      -5.95258507
H        1.53694265       4.39576963      -3.92750341
H        0.14397924       2.99115589      -2.50074590
H        3.58928646       0.75104747      -1.25875551
H        6.04098655       3.01705890      -3.02841542
H        5.66393038       1.36365634      -3.54292677
H        8.49360177      -0.20265858       1.53573016
H        7.76431226       1.93511726       4.51619406
H        8.94632711       1.70872277       6.62607443
H       11.94546413      -2.15961211       3.98669803
H       11.59771483      -2.38008418       5.70338331
H       12.72868835      -1.10332659       5.16020505
H       10.23053987      -1.15158492       2.78619609
H        5.76251076       4.25367420      -0.90207070
H        6.57407646       4.12498793       0.59085823
C       -3.77648596      -4.53003939      -5.47559506
O       -4.26093785      -4.12590595      -4.19804336
C       -3.40645787      -3.38044665      -3.42702366
C       -2.01385347      -3.39533220      -3.57508849
C       -1.20702566      -2.60173955      -2.75794042
C       -1.79166776      -1.79166776      -1.79166776
C       -3.17646246      -1.77523102      -1.62594222
C       -4.00440069      -2.58901615      -2.42413537
C       -5.51670885      -2.54115503      -2.30023297
N       -5.98982113      -2.32569231      -0.94104691
N       -6.44508142      -1.10836840      -0.56725560
N       -6.83693480      -1.19585543       0.69710648
C       -6.62618839      -2.48740965       1.12732399
C       -6.90918326      -2.94411700       2.48055003
O       -6.48902365      -4.02234479       2.88937699
N       -7.71765478      -2.07291631       3.19462688
C       -8.15271266      -2.23843461       4.52455231
C       -7.53697469      -3.10657310       5.42631126
C       -8.02474062      -3.24054822       6.72817012
C       -9.14526639      -2.51712903       7.13742232
Br      -9.75935457      -2.78424327       8.91457049
C       -9.78090103      -1.63409617       6.25248790
C      -11.01159407      -0.86325748       6.64113194
C       -9.25620555      -1.48816024       4.95261824
C       -6.11779136      -3.23856723       0.07753236
N       -5.80376472      -4.55016428      -0.03095706
H       -4.61868889      -4.95230208      -6.03217857
H       -3.01767373      -5.31288039      -5.38011450
H       -3.39476109      -3.67524728      -6.04453309
H       -1.52441518      -4.02018478      -4.31561572
H       -0.12782145      -2.62028541      -2.88777417
H       -3.60827679      -1.11826021      -0.87255245
H       -5.98016412      -3.47839532      -2.62790143
H       -5.90852120      -1.73338119      -2.92861111
H       -8.10965010      -1.30484277       2.65927984
H       -6.65628275      -3.68129246       5.15433975
H       -7.52087499      -3.91978596       7.41168550
H      -11.37399857      -0.24115075       5.81599533
H      -10.79987339      -0.19925234       7.48487839
H      -11.82158196      -1.55080067       6.90722592
H       -9.74486822      -0.80692742       4.25903676
H       -5.21830168      -4.92826907      -0.77168491
H       -5.80160517      -5.12408251       0.81748152
C       -4.74666539       3.67668997       5.35876505
O       -4.26044446       4.19895819       4.12548450
C       -3.42981516       3.38371462       3.40039841
C       -2.67750672       2.34454373       3.96222371
C       -1.85889757       1.54924061       3.15856745
C       -1.79166776       1.79166776       1.79166776
C       -2.52702831       2.83012196       1.22048544
C       -3.33830006       3.65921806       2.02003409
C       -4.19222526       4.75608825       1.40978334
N       -3.57809893       5.41285823       0.26560320
N       -3.99136478       5.11693293      -0.98759229
N       -3.29532246       5.86974525      -1.82938396
C       -2.43043452       6.65243589      -1.09659635
C       -1.48183346       7.58283296      -1.69191620
O       -0.57445303       8.07741005      -1.02987163
N       -1.75299371       7.86503780      -3.02208730
C       -1.01058960       8.71836044      -3.86235508
C        0.30095589       9.10676663      -3.58857421
C        0.98048222       9.96929915      -4.45169821
C        0.34814869      10.46525219      -5.59213040
Br       1.33532872      11.65717288      -6.69281681
C       -0.96844357      10.08755611      -5.89349039
C       -1.69877264      10.62668613      -7.09173915
C       -1.62785946       9.19184845      -5.02796035
C       -2.62381164       6.40099903       0.25401555
N       -2.07557027       6.94376903       1.36554675
H       -5.52273345       4.35590064       5.72453545
H       -3.95420994       3.64359061       6.11286807
H       -5.20353726       2.69070331       5.22030089
H       -2.70232932       2.13152928       5.02635708
H       -1.28440466       0.74323949       3.60823687
H       -2.46827102       2.98634926       0.14446917
H       -4.40160957       5.55485467       2.12999663
H       -5.15037182       4.33437044       1.08577124
H       -2.63136784       7.49854206      -3.37469687
H        0.83563098       8.73715426      -2.71828783
H        2.00438948      10.25004410      -4.21667917
H       -2.71870868      10.23262883      -7.15218353
H       -1.18302520      10.34666560      -8.01544345
H       -1.77703273      11.71736061      -7.02923664
H       -2.65033067       8.89564299      -5.25321479
H       -2.12324805       6.51052821       2.28447939
H       -1.27566653       7.57450642       1.25803322
C        4.65368104      -3.71442723       5.41401214
O        4.26417950      -4.19153500       4.12917265
C        3.42878580      -3.38219528       3.40294710
C        2.59018238      -2.41797765       3.97611413
C        1.77208927      -1.62344721       3.17116915
C        1.79166776      -1.79166776       1.79166776
C        2.61383332      -2.75554767       1.20825471
C        3.42673552      -3.58392907       2.00688762
C        4.37248603      -4.59751950       1.38809132
N        3.85829350      -5.22057151       0.17769535
N        4.32049951      -4.83283508      -1.03262917
N        3.71391731      -5.57305860      -1.95129217
C        2.85666365      -6.44085088      -1.31124047
C        1.99514481      -7.38549536      -2.00788995
O        1.08305858      -7.96432253      -1.42538967
N        2.35237502      -7.57738769      -3.33381850
C        1.70515613      -8.42037803      -4.25893921
C        0.40485655      -8.89303162      -4.08065162
C       -0.17793545      -9.74056030      -5.02550613
C        0.54130434     -10.13698062      -6.15331186
Br      -0.31696655     -11.31592683      -7.36993293
C        1.84871091      -9.67318069      -6.35938231
C        2.67116985     -10.10415910      -7.54160934
C        2.40945442      -8.79378571      -5.41149257
C        2.96321301      -6.25599830       0.05961491
N        2.38791449      -6.88905022       1.10792135
H        5.44618206      -4.37079858       5.78618891
H        3.82151164      -3.76622779       6.12292918
H        5.06097526      -2.69923068       5.35433552
H        2.54613851      -2.26427468       5.04980249
H        1.12989503      -0.87588445       3.63010155
H        2.62147745      -2.85377568       0.12383632
H        4.58784036      -5.42330681       2.07531371
H        5.32125536      -4.10768032       1.14157781
H        3.22625188      -7.14524837      -3.61628722
H       -0.19548167      -8.60212950      -3.22341238
H       -1.19546608     -10.08834378      -4.86390226
H        3.66903765      -9.65345918      -7.52334284
H        2.19048077      -9.80042765      -8.47666108
H        2.80734825     -11.19089032      -7.53308186
H        3.42416067      -8.43121550      -5.56261731
H        2.36198895      -6.50637977       2.04988693
H        1.63172078      -7.55450604       0.92197934
C       -0.00445707       0.01189536      -1.78238275
H       -0.66409135       0.67374010      -2.43557963
H        0.65740317      -0.63156657      -2.45157240
C       -0.90989263      -0.90692880      -0.91072765
C        0.90977584       0.90977584      -0.90977584
C       -0.00465871       1.77757030       0.00794375
H       -0.66225468       2.44313916      -0.64384735
H        0.64322798       2.43503045       0.67728295
C       -1.78241447       0.00034974      -0.00472694
H       -2.45427497      -0.65498947       0.64260836
H       -2.43311707       0.67328779      -0.65473579
C       -0.91132561       0.90220522       0.91563759
C       -0.01476271      -0.02253852       1.78660255
H       -0.67934791      -0.69751639       2.42135241
H        0.63392994       0.61504881       2.47327442
C        0.01484550      -1.77751727      -0.01636693
H        0.67870853      -2.42144646      -0.68295456
H       -0.62264859      -2.45592969       0.64226336
C        1.78714474       0.01002794       0.00389507
H        2.44202412       0.67113390       0.66197326
H        2.45385902      -0.65136977      -0.64189061
C        0.91606151      -0.90478549       0.90901405
