173
Properties=species:S:1:pos:R:3 pbc="F F F"
C        0.00000000       0.00000000       0.00000000
C        0.88185549       0.88185549      -0.88185549
C        2.04889689       0.36054041      -1.43272497
C        2.85373427       1.16772064      -2.24053327
C        2.49735060       2.50049480      -2.51398762
C        1.31659902       3.00603007      -1.94329894
C        0.51371179       2.20169795      -1.12944728
C        3.35741718       3.38432631      -3.41791183
H        2.89776341       4.37725364      -3.48659788
C        3.34978543       2.84270312      -4.82935761
C        2.35128725       2.82502173      -5.78801469
C        2.86816897       2.17525391      -6.93609614
C        4.16787527       1.81428763      -6.65605547
N        4.43793250       2.21615964      -5.38178524
C        5.69952596       2.10689081      -4.68113115
C        5.87453264       3.35271939      -3.83043259
N        4.74278492       3.53288401      -2.88021708
S        4.95796956       4.75991918      -1.71832271
O        3.76690258       4.87914064      -0.90790630
O        6.25907885       4.56368007      -1.11195814
C        5.07148488       6.25018441      -2.70057207
C        6.33044144       6.71362115      -3.10376206
C        6.42676733       7.88059716      -3.86354594
C        5.27035905       8.58577096      -4.19747684
C        4.01823146       8.14497307      -3.76546077
C        3.91678069       6.97811173      -3.00409845
H        2.34229861      -0.66795008      -1.24120006
H        3.76218672       0.74592996      -2.66124679
H        1.01921590       4.03798913      -2.11558473
H       -0.39054730       2.61588414      -0.69174943
H        1.35193258       3.22479713      -5.66845445
H        2.34667661       1.98889178      -7.86623472
H        4.90642191       1.30599900      -7.26214181
H        5.66098169       1.19522577      -4.07720923
H        6.50372709       2.02066328      -5.41844579
H        6.81356041       3.25913423      -3.27485214
H        5.94759212       4.22977060      -4.48403149
H        7.23590918       6.17616756      -2.83014856
H        7.40402951       8.23461340      -4.18332324
H        3.11996141       8.70692733      -4.01039881
H        2.94107003       6.65293989      -2.64959391
C        5.37144883       9.78582882      -4.98693360
C        5.45611153      10.79087728      -5.64810364
Br       5.59300395      12.41595564      -6.71715967
C       -0.88185549      -0.88185549      -0.88185549
C       -1.95224501      -0.31905349      -1.57086377
C       -2.75704871      -1.12647365      -2.37846582
C       -2.49630217      -2.50190709      -2.51362376
C       -1.41250857      -3.04841700      -1.80500246
C       -0.61036636      -2.24314981      -0.99134085
C       -3.35493883      -3.38935509      -3.41536139
H       -2.97858128      -4.41782194      -3.36521171
C       -3.18874046      -2.97371665      -4.85938905
C       -2.11956291      -3.11797051      -5.72679024
C       -2.48583352      -2.53063517      -6.96305032
C       -3.76769188      -2.04494151      -6.82558499
N       -4.17158552      -2.31280165      -5.55149021
C       -5.47064442      -2.04384324      -4.97306025
C       -5.81928979      -3.19389672      -4.04449811
N       -4.78621826      -3.38067791      -2.98898984
S       -5.19782514      -4.48205917      -1.75632713
O       -4.08950300      -4.62507027      -0.83937625
O       -6.52115421      -4.13172198      -1.28184087
C       -5.36110533      -6.03772421      -2.62341182
C       -6.61936448      -6.43287834      -3.09558183
C       -6.75535243      -7.64966835      -3.76588965
C       -5.64119898      -8.47048073      -3.94192713
C       -4.39395913      -8.09478355      -3.43992262
C       -4.25301663      -6.87837781      -2.76759642
H       -2.17017155       0.74213426      -1.48751129
H       -3.58952926      -0.67180081      -2.90803341
H       -1.19245278      -4.11170698      -1.86863000
H        0.21725814      -2.68847407      -0.44587034
H       -1.17102487      -3.58394497      -5.49021432
H       -1.87810189      -2.46708159      -7.85661963
H       -4.40927954      -1.53381787      -7.53146531
H       -5.40168461      -1.08945814      -4.44227394
H       -6.20340461      -1.95797942      -5.78145213
H       -6.78784961      -2.97859944      -3.58109772
H       -5.91560420      -4.11545057      -4.63033944
H       -7.49397667      -5.80373175      -2.94451688
H       -7.73104032      -7.95130603      -4.13961979
H       -3.53088094      -8.74521983      -3.56118679
H       -3.28410976      -6.60226984      -2.35722424
C       -5.78241609      -9.72230458      -4.63949059
C       -5.90068541     -10.77070705      -5.22369999
Br      -6.09191691     -12.46588518      -6.16831718
C       -0.88185549       0.88185549       0.88185549
C       -0.31132902       1.92408487       1.60674838
C       -1.11932811       2.73099909       2.41166099
C       -2.50608108       2.51151876       2.49423317
C       -3.05886829       1.45060955       1.75645019
C       -2.25079167       0.63822537       0.95583997
C       -3.40308636       3.40499722       3.35157173
H       -4.43771962       3.05111980       3.27277552
C       -3.41842197       4.80994816       2.79347604
C       -3.99661743       5.32273832       1.64496792
C       -3.68778685       6.70431966       1.58741250
C       -2.93302113       7.00525495       2.69994229
N       -2.77384783       5.85236512       3.40966443
C       -2.10602248       5.69732369       4.68420174
C       -2.88058283       4.67707973       5.50002205
N       -2.99354053       3.37487894       4.78746654
S       -3.63057952       2.09369006       5.71194187
O       -3.75339063       0.91172729       4.88883160
O       -2.90790212       2.05962407       6.96719088
C       -5.29090630       2.63852276       6.09281230
C       -5.53057637       3.32995272       7.28729556
C       -6.82550180       3.75078941       7.59461922
C       -7.87260535       3.46159797       6.71940352
C       -7.64134021       2.74089627       5.54642882
C       -6.34726188       2.31679235       5.23493663
H        0.75657717       2.11751880       1.55460695
H       -0.65796183       3.53907819       2.97232346
H       -4.12408331       1.23757164       1.81113481
H       -2.69822454      -0.18171206       0.40057379
H       -4.56813283       4.75895798       0.91809334
H       -3.98274682       7.40357694       0.81547935
H       -2.50281871       7.94184719       3.02989683
H       -1.08138546       5.37225502       4.47977622
H       -2.08539000       6.66788974       5.18955642
H       -2.36039694       4.53414450       6.45300533
H       -3.88291896       5.06789219       5.71058305
H       -4.71960898       3.54172308       7.98089324
H       -7.00880690       4.29508667       8.51807258
H       -8.46234719       2.49964681       4.87529356
H       -6.17719411       1.73446327       4.33194645
C       -9.20660799       3.90240421       7.03519905
C      -10.32383520       4.27157945       7.29967781
Br     -12.13029710       4.86850457       7.72731759
C        0.88185549      -0.88185549       0.88185549
C        0.39201990      -2.09604822       1.35409415
C        1.20027114      -2.90248980       2.15922724
C        2.50859634      -2.50948544       2.49375123
C        2.97987028      -1.27741577       2.00864197
C        2.17006664      -0.46633306       1.20845731
C        3.41052061      -3.39665211       3.35248260
H        4.37542411      -2.89502307       3.49116775
C        3.72911707      -4.67749390       2.61523520
C        4.53563732      -4.91351997       1.51516638
C        4.46445425      -6.29703051       1.21803426
C        3.62149980      -6.87479443       2.14192415
N        3.18199102      -5.88459576       2.96929060
C        2.32810204      -6.03086554       4.12858033
C        2.80772413      -5.05821558       5.19174491
N        2.80682871      -3.65526844       4.69378886
S        3.09498489      -2.46416024       5.87706632
O        3.13838798      -1.15952929       5.25603224
O        2.20965851      -2.73312535       6.99193319
C        4.75254567      -2.82825795       6.44143774
C        4.93293152      -3.66324887       7.55164426
C        6.22361921      -3.94487537       8.00241584
C        7.32130586      -3.37638951       7.35591147
C        7.14144068      -2.51509801       6.27212661
C        5.85163091      -2.22948987       5.81787008
H       -0.61313940      -2.42439637       1.10429162
H        0.80209136      -3.84630765       2.52096446
H        3.97888884      -0.93069299       2.26320793
H        2.55197342       0.48627550       0.85138835
H        5.10381491      -4.16640524       0.97496401
H        4.97215567      -6.81513599       0.41451146
H        3.30639782      -7.90270426       2.26546065
H        1.30273506      -5.82201366       3.80866798
H        2.39443718      -7.06358151       4.48481746
H        2.14453981      -5.14407353       6.05893344
H        3.82104474      -5.33538517       5.50496430
H        4.07864199      -4.09414628       8.06943703
H        6.36270882      -4.60021129       8.85904604
H        7.99768289      -2.05762496       5.78197970
H        5.71651709      -1.53845617       4.98863058
C        8.65222540      -3.67348946       7.81849640
C        9.76687051      -3.92231068       8.20591127
Br      11.56915737      -4.32463354       8.83232835
