165
Properties=species:S:1:pos:R:3 pbc="F F F"
C        0.00000000       0.00000000       0.00000000
C        0.88185549       0.88185549      -0.88185549
C        2.04889689       0.36054041      -1.43272497
C        2.85373427       1.16772064      -2.24053327
C        2.49735060       2.50049480      -2.51398762
C        1.31659902       3.00603007      -1.94329894
C        0.51371179       2.20169795      -1.12944728
C        3.35741718       3.38432631      -3.41791183
H        2.89776341       4.37725364      -3.48659788
C        3.34978543       2.84270312      -4.82935761
C        2.35128725       2.82502173      -5.78801469
C        2.86816897       2.17525391      -6.93609614
C        4.16787527       1.81428763      -6.65605547
N        4.43793250       2.21615964      -5.38178524
C        5.69952596       2.10689081      -4.68113115
C        5.87453264       3.35271939      -3.83043259
N        4.74278492       3.53288401      -2.88021708
S        4.95796956       4.75991918      -1.71832271
O        3.76690258       4.87914064      -0.90790630
O        6.25907885       4.56368007      -1.11195814
C        5.07148488       6.25018441      -2.70057207
C        6.33044144       6.71362115      -3.10376206
C        6.42676733       7.88059716      -3.86354594
C        5.27035905       8.58577096      -4.19747684
Br       5.40304688      10.16093581      -5.23369733
C        4.01823146       8.14497307      -3.76546077
C        3.91678069       6.97811173      -3.00409845
H        2.34229861      -0.66795008      -1.24120006
H        3.76218672       0.74592996      -2.66124679
H        1.01921590       4.03798913      -2.11558473
H       -0.39054730       2.61588414      -0.69174943
H        1.35193258       3.22479713      -5.66845445
H        2.34667661       1.98889178      -7.86623472
H        4.90642191       1.30599900      -7.26214181
H        5.66098169       1.19522577      -4.07720923
H        6.50372709       2.02066328      -5.41844579
H        6.81356041       3.25913423      -3.27485214
H        5.94759212       4.22977060      -4.48403149
H        7.23590918       6.17616756      -2.83014856
H        7.40402951       8.23461340      -4.18332324
H        3.11996141       8.70692733      -4.01039881
H        2.94107003       6.65293989      -2.64959391
C       -0.88185549      -0.88185549      -0.88185549
C       -2.03159439      -1.45945671      -0.35111117
C       -2.83823051      -2.26448602      -1.15927165
C       -2.51037491      -2.49386553      -2.50759257
C       -1.34241412      -1.90341554      -3.02009837
C       -0.53075779      -1.10311182      -2.21098741
C       -3.40019662      -3.35181916      -3.40763954
H       -2.95393189      -3.39981962      -4.40786342
C       -4.74082646      -2.68024981      -3.60076989
C       -5.09373608      -1.55103100      -4.31955659
C       -6.48521433      -1.34789262      -4.14641206
C       -6.95121379      -2.35589869      -3.33110589
N       -5.88694307      -3.14311661      -3.00581770
C       -5.90825733      -4.35864876      -2.22064181
C       -4.90612160      -5.32659243      -2.82497060
N       -3.53849121      -4.74080706      -2.87658774
S       -2.29926059      -5.82593137      -3.31101949
O       -1.03980503      -5.12117281      -3.39297167
O       -2.44345546      -7.00695749      -2.48430411
C       -2.73411155      -6.31172885      -4.97640096
C       -3.51064495      -7.46024508      -5.17693462
C       -3.84669142      -7.84966938      -6.47454963
C       -3.38955620      -7.10324883      -7.56080182
Br      -3.85332138      -7.62796686      -9.31639178
C       -2.58526799      -5.97933721      -7.36406010
C       -2.24552108      -5.58613375      -6.06733603
H       -2.30935461      -1.29209734       0.68590336
H       -3.73115333      -2.70919225      -0.72901789
H       -1.04567068      -2.07471306      -4.05240602
H        0.37224424      -0.66347187      -2.62585864
H       -4.41837268      -0.93091603      -4.89589545
H       -7.08214774      -0.55010406      -4.56955131
H       -7.94754908      -2.56371095      -2.96330269
H       -5.65381738      -4.08827783      -1.19132148
H       -6.91980082      -4.77562701      -2.24740833
H       -4.89703470      -6.23581465      -2.21469743
H       -5.22824663      -5.59539411      -3.83775347
H       -3.85404610      -8.05500401      -4.33317518
H       -4.45687294      -8.73657295      -6.62852027
H       -2.21385606      -5.41029862      -8.21313287
H       -1.59838677      -4.72399072      -5.92122635
C       -0.88185549       0.88185549       0.88185549
C       -0.29591844       1.72223811       1.82400572
C       -1.10359368       2.52957773       2.62881678
C       -2.50358244       2.51295840       2.49529217
C       -3.07263487       1.65328085       1.54001230
C       -2.26624803       0.84000717       0.73860182
C       -3.39506379       3.41169430       3.35289722
H       -4.44324683       3.23135358       3.08701453
C       -3.14218538       4.86364380       3.01601699
C       -3.46840115       5.60351776       1.89240476
C       -2.97646209       6.91821099       2.08484594
C       -2.36540765       6.95374199       3.31906873
N       -2.46726523       5.70725078       3.86136137
C       -2.02546414       5.28792079       5.17416298
C       -3.04092109       4.29841768       5.71834585
N       -3.21435464       3.13264497       4.80888639
S       -4.14557191       1.85249424       5.43814530
O       -4.29625843       0.82048054       4.43721055
O       -3.63129526       1.54594972       6.75747208
C       -5.75870072       2.58707494       5.67646569
C       -6.08336882       3.14456734       6.91988849
C       -7.34356857       3.71213164       7.11521022
C       -8.27534639       3.70118818       6.07707227
Br      -9.97796163       4.47812732       6.34159107
C       -7.96598657       3.11346931       4.84920942
C       -6.70641510       2.54337640       4.64919936
H        0.78364595       1.75746541       1.94172913
H       -0.63045456       3.17846799       3.36044093
H       -4.15250924       1.59810570       1.42217483
H       -2.72809896       0.17668944       0.01229788
H       -3.99245088       5.23235967       1.02037361
H       -3.05758328       7.74882493       1.39539490
H       -1.87119176       7.76342522       3.83994574
H       -1.03311491       4.84152453       5.05877725
H       -1.95459507       6.16975765       5.81848344
H       -2.69368681       3.95526983       6.69859014
H       -4.00374814       4.80506703       5.85257904
H       -5.36569256       3.13902417       7.73750856
H       -7.59135016       4.15238630       8.07822969
H       -8.70074391       3.08870472       4.04783892
H       -6.47966456       2.06517737       3.69876192
C        0.88185549      -0.88185549       0.88185549
C        0.71726012      -2.26377122       0.86113092
C        1.52567058      -3.06934965       1.66696796
C        2.51246015      -2.50455807       2.49481479
C        2.65734775      -1.10656610       2.50201418
C        1.84481082      -0.29873661       1.70130958
C        3.41995888      -3.37888088       3.36081555
H        4.10452621      -2.73348282       3.92360590
C        4.30712913      -4.23189972       2.48281731
C        5.38615665      -3.89401710       1.68414992
C        5.84470257      -5.07850468       1.05631177
C        5.04070101      -6.11134344       1.48617392
N        4.11630391      -5.58250682       2.33706665
C        3.10465015      -6.30053808       3.08235968
C        2.96926020      -5.64355147       4.44487295
N        2.62986892      -4.19884312       4.32717396
S        2.21919454      -3.42753409       5.78948282
O        1.98204110      -2.02180048       5.55010794
O        1.22959413      -4.25075284       6.45437010
C        3.71723318      -3.54573182       6.75927636
C        3.88770870      -4.62821973       7.63189621
C        5.05084267      -4.72223133       8.39783643
C        6.02391800      -3.72719668       8.30249216
Br       7.60178445      -3.86151186       9.33438370
C        5.83896444      -2.62917995       7.46052091
C        4.67617063      -2.53017930       6.69264094
H       -0.03397417      -2.72418148       0.22534128
H        1.38309243      -4.14598905       1.64028199
H        3.39581902      -0.63239716       3.14457359
H        1.96852026       0.78049457       1.72906059
H        5.79133552      -2.89791727       1.55593137
H        6.67142114      -5.16725342       0.36312855
H        5.05886523      -7.16700517       1.24869232
H        2.17628516      -6.25193439       2.50519714
H        3.41698343      -7.34481701       3.18103572
H        2.18246869      -6.16501821       5.00005987
H        3.91055035      -5.75530604       4.99553782
H        3.12310620      -5.39686164       7.72225746
H        5.18590798      -5.56760582       9.06845235
H        6.59001313      -1.84481316       7.40246126
H        4.52648112      -1.66017250       6.05695023
