173
Properties=species:S:1:pos:R:3 pbc="F F F"
C        0.00000000       0.00000000       0.00000000
C       -0.53369862       0.30227674      -4.21002665
O       -0.36233879       0.25588210      -2.80019370
C        0.67307745       0.98668473      -2.27373526
C        1.50984098       1.81779875      -3.02227538
C        2.53696992       2.53309073      -2.39983535
C        2.76909062       2.42752857      -1.02046973
C        1.92250995       1.60152613      -0.26789058
C        0.88935436       0.88935436      -0.88935436
C        3.87004222       3.23754688      -0.33726323
H        4.17388584       2.71112446       0.57875266
O        3.19784603       4.45964876       0.08911790
C        3.89916061       5.63426912      -0.00118562
C        3.18504839       6.80435067       0.25602873
C        3.82136662       8.04307617       0.16924996
C        5.17386442       8.10098257      -0.16949420
Br       6.03420732       9.78229049      -0.28640295
C        5.89830840       6.93480376      -0.41690668
C        5.25785658       5.69316340      -0.34005378
C        5.95413386       4.38759992      -0.53337059
H        6.24935113       4.01866278       0.46293871
C        7.14720442       4.26385296      -1.46722642
C        7.06948119       2.79947816      -1.82152887
N        5.83564785       2.29355519      -1.58217905
N        5.03543734       3.46671946      -1.18683309
C        8.09662323       1.95247196      -2.31758404
C        8.05810414       0.60089722      -2.64928710
C        9.33888696       0.21721203      -3.10472594
C       10.10898480       1.34905423      -3.03259596
O        9.38315293       2.39192185      -2.56249994
H       -1.37853649      -0.34488335      -4.46533284
H        0.34911365      -0.08439943      -4.73041873
H       -0.78140822       1.31504481      -4.54553002
H        1.40678429       1.93768710      -4.09426884
H        3.19438771       3.16840344      -2.99421290
H        2.07905839       1.52009382       0.80424735
H        2.13123688       6.74344852       0.51081334
H        3.25561011       8.94884009       0.36186365
H        6.95263649       6.98287953      -0.67304856
H        7.05063518       4.87881522      -2.37029661
H        8.08463929       4.51681454      -0.96162964
H        7.17287870      -0.01354117      -2.56137234
H        9.65240101      -0.75798409      -3.44247912
H       11.13868420       1.57166578      -3.26568688
C       -3.16786640       1.56141803      -2.37215641
O       -2.08721809       1.01913190      -1.62565082
C       -1.91266480      -0.34098256      -1.67985009
C       -2.67763011      -1.20146976      -2.47081524
C       -2.42390219      -2.57612946      -2.46986434
C       -1.41460805      -3.13236597      -1.67011490
C       -0.64017880      -2.26728901      -0.88445884
C       -0.88935436      -0.88935436      -0.88935436
C       -1.11635188      -4.63079081      -1.69770964
H       -0.65213712      -4.91232418      -0.74179634
O       -0.08302182      -4.76748615      -2.71786892
C       -0.13400207      -5.87178472      -3.52882856
C        0.76240363      -5.89880062      -4.59697335
C        0.76378348      -6.97987211      -5.47910419
C       -0.13104083      -8.03221641      -5.28108396
Br      -0.12689058      -9.49703458      -6.47897561
C       -1.02292848      -8.01855231      -4.20853805
C       -1.03152152      -6.92971489      -3.32983736
C       -1.90686917      -6.84382690      -2.12440831
H       -1.32471008      -7.21551441      -1.26485071
C       -3.27740080      -7.50098712      -2.09989588
C       -3.97377058      -6.64833118      -1.06838647
N       -3.35084501      -5.45645983      -0.90407726
N       -2.29835858      -5.45446006      -1.93617126
C       -5.11840929      -6.96118667      -0.28708327
C       -5.78051841      -6.20047695       0.67270689
C       -6.87105770      -6.95254166       1.16277444
C       -6.83155556      -8.14273222       0.48365278
O       -5.79037358      -8.16432705      -0.38287409
H       -3.18034355       2.64282921      -2.20439866
H       -4.12803584       1.16164052      -2.02873763
H       -3.02940128       1.39624762      -3.44601295
H       -3.48673352      -0.85123193      -3.10077478
H       -3.03541395      -3.24208327      -3.07950684
H        0.15561764      -2.68003809      -0.27048441
H        1.44727692      -5.06877106      -4.74237791
H        1.45831900      -6.98804942      -6.31285613
H       -1.71300455      -8.84263244      -4.05292759
H       -3.80092684      -7.43721070      -3.06160947
H       -3.21733269      -8.55068743      -1.79506335
H       -5.47852219      -5.20319677       0.96100909
H       -7.58973984      -6.65856065       1.91140444
H       -7.43882046      -9.03447895       0.49726255
C        1.56585961       2.39935763       3.14510676
O        1.02169627       1.64351545       2.07191783
C       -0.33968925       1.68888881       1.90491938
C       -1.20032354       2.47930423       2.67028734
C       -2.57639004       2.46898811       2.42451786
C       -3.13378557       1.66023606       1.42306729
C       -2.26864674       0.87510124       0.64817867
C       -0.88935436       0.88935436       0.88935436
C       -4.63403392       1.67749613       1.13332228
H       -4.91270087       0.71731404       0.67624273
O       -4.78255809       2.69086417       0.09495463
C       -5.89121382       3.49574613       0.14765541
C       -5.92955274       4.55851963      -0.75470203
C       -7.01569434       5.43440130      -0.75490280
C       -8.06171754       5.23551223       0.14711141
Br      -9.53343386       6.42492317       0.14454373
C       -8.03673051       4.16823492       1.04505341
C       -6.94280162       3.29586961       1.05240254
C       -6.84492016       2.09603298       1.93415122
H       -7.21497284       1.23100374       1.35909863
C       -7.49404173       2.07566597       3.30857610
C       -6.63145134       1.05311475       4.00592214
N       -5.44224936       0.89205951       3.37707323
N       -5.45226206       1.91804811       2.31867972
C       -6.93320390       0.27665499       5.15682034
C       -6.16316802      -0.67490570       5.82002614
C       -6.90610921      -1.16297585       6.91769157
C       -8.10041206      -0.49094396       6.88116690
O       -8.13299677       0.36941277       5.83516518
H        2.64827608       2.23789142       3.15229766
H        1.17359728       2.05920219       4.10952804
H        1.39369293       3.47142920       3.00143035
H       -0.84908889       3.11593137       3.47371997
H       -3.24233123       3.07831784       3.03635499
H       -2.68240648       0.25417639      -0.14167801
H       -5.10432641       4.70473070      -1.44518505
H       -7.03268071       6.26406464      -1.45415879
H       -8.85591873       4.01188255       1.74076329
H       -7.43281722       3.04073969       3.82619010
H       -8.54229062       1.76446476       3.25632808
H       -5.16599007      -0.95921320       5.51393299
H       -6.60368182      -1.90573830       7.63895252
H       -8.98856113      -0.50616776       7.49364349
C        4.19816000      -0.36555398      -0.58510920
O        2.80575522      -0.22622608      -0.33824429
C        2.27670634      -0.97084184       0.68594925
C        3.02765701      -1.78910196       1.53315614
C        2.40466693      -2.50732698       2.55790208
C        1.01745293      -2.44361522       2.75602077
C        0.26552639      -1.61413283       1.91226743
C        0.88935436      -0.88935436       0.88935436
C        0.34390543      -3.20212832       3.89881858
H       -0.70518900      -3.38532814       3.62611850
O        0.32642778      -2.24381085       4.99813826
C        0.54679889      -2.72486444       6.26295203
C        0.68749449      -1.77314808       7.27272777
C        0.93035328      -2.17959912       8.58524042
C        1.02473808      -3.54051691       8.87908620
Br       1.35412637      -4.08880804      10.65996634
C        0.87365359      -4.49926622       7.87709904
C        0.64040695      -4.09157308       6.55909373
C        0.41169627      -5.03641086       5.42699725
H       -0.67796679      -5.16526928       5.31777271
C        1.06496883      -6.40883402       5.40448095
C        1.09455746      -6.67594928       3.91998149
N        0.97499161      -5.53129538       3.20509511
N        0.99944530      -4.46593806       4.22360653
C        1.19800335      -7.92247586       3.24620002
C        1.22383954      -8.20189246       1.88255646
C        1.34526865      -9.59926638       1.71628989
C        1.38811732     -10.11800139       2.98451628
O        1.29872519      -9.13081992       3.90802960
H        4.45155530       0.27141658      -1.43822572
H        4.45272218      -1.39637768      -0.85396691
H        4.78833878      -0.02030180       0.27052604
H        4.10022191      -1.90594325       1.43257508
H        2.99676946      -3.15477094       3.20546365
H       -0.80828412      -1.54161931       2.06156967
H        0.61923303      -0.71763788       7.02700115
H        1.04782301      -1.43188757       9.36287597
H        0.94028537      -5.55787743       8.11040178
H        2.08398535      -6.40552909       5.81023257
H        0.46780894      -7.15004280       5.94523172
H        1.16275373      -7.44439254       1.11356359
H        1.39689641     -10.14979319       0.79020644
H        1.47569669     -11.11653249       3.38380768
