181
Properties=species:S:1:pos:R:3 pbc="F F F"
C        0.00000000       0.00000000       0.00000000
C       -0.53369862       0.30227674      -4.21002665
O       -0.36233879       0.25588210      -2.80019370
C        0.67307745       0.98668473      -2.27373526
C        1.50984098       1.81779875      -3.02227538
C        2.53696992       2.53309073      -2.39983535
C        2.76909062       2.42752857      -1.02046973
C        1.92250995       1.60152613      -0.26789058
C        0.88935436       0.88935436      -0.88935436
C        3.87004222       3.23754688      -0.33726323
H        4.17388584       2.71112446       0.57875266
O        3.19784603       4.45964876       0.08911790
C        3.89916061       5.63426912      -0.00118562
C        3.18504839       6.80435067       0.25602873
C        3.82136662       8.04307617       0.16924996
C        5.17386442       8.10098257      -0.16949420
C        5.89830840       6.93480376      -0.41690668
C        5.25785658       5.69316340      -0.34005378
C        5.95413386       4.38759992      -0.53337059
H        6.24935113       4.01866278       0.46293871
C        7.14720442       4.26385296      -1.46722642
C        7.06948119       2.79947816      -1.82152887
N        5.83564785       2.29355519      -1.58217905
N        5.03543734       3.46671946      -1.18683309
C        8.09662323       1.95247196      -2.31758404
C        8.05810414       0.60089722      -2.64928710
C        9.33888696       0.21721203      -3.10472594
C       10.10898480       1.34905423      -3.03259596
O        9.38315293       2.39192185      -2.56249994
H       -1.37853649      -0.34488335      -4.46533284
H        0.34911365      -0.08439943      -4.73041873
H       -0.78140822       1.31504481      -4.54553002
H        1.40678429       1.93768710      -4.09426884
H        3.19438771       3.16840344      -2.99421290
H        2.07905839       1.52009382       0.80424735
H        2.13123688       6.74344852       0.51081334
H        3.25561011       8.94884009       0.36186365
H        6.95263649       6.98287953      -0.67304856
H        7.05063518       4.87881522      -2.37029661
H        8.08463929       4.51681454      -0.96162964
H        7.17287870      -0.01354117      -2.56137234
H        9.65240101      -0.75798409      -3.44247912
H       11.13868420       1.57166578      -3.26568688
C        5.82858033       9.38044807      -0.25846108
C        6.37690491      10.45200042      -0.33297083
Br       7.26349938      12.18460996      -0.45344681
C       -3.14764663       1.56537994      -2.39633808
O       -2.07362503       1.02142056      -1.64153254
C       -1.90578360      -0.33982828      -1.68788555
C       -2.67110660      -1.20044649      -2.47836202
C       -2.42444907      -2.57636149      -2.46908544
C       -1.42212341      -3.13363294      -1.66133258
C       -0.64728604      -2.26850070      -0.87613991
C       -0.88935436      -0.88935436      -0.88935436
C       -1.13142850      -4.63368388      -1.67973995
H       -0.67355512      -4.91267282      -0.72002970
O       -0.09361572      -4.78089319      -2.69386797
C       -0.14612221      -5.88906662      -3.49942652
C        0.75557815      -5.92614626      -4.56280222
C        0.75591326      -7.01172619      -5.43937990
C       -0.14530299      -8.05845459      -5.24058361
C       -1.04257647      -8.03472688      -4.17271548
C       -1.05006718      -6.94136200      -3.29964458
C       -1.93110908      -6.84481444      -2.09918085
H       -1.35526516      -7.21505249      -1.23475755
C       -3.30510451      -7.49482983      -2.07834946
C       -4.00234737      -6.63334187      -1.05479899
N       -3.37415729      -5.44384044      -0.89338436
N       -2.31641548      -5.45251743      -1.92005698
C       -5.15255405      -6.93632948      -0.27779570
C       -5.81564290      -6.16732863       0.67468307
C       -6.91251907      -6.91128581       1.16297996
C       -6.87566012      -8.10513424       0.49015937
O       -5.83018947      -8.13649727      -0.37088798
H       -3.15542744       2.64768792      -2.23417348
H       -4.11159818       1.17228164      -2.05581641
H       -3.00454721       1.39399222      -3.46861162
H       -3.47517200      -0.84931917      -3.11424906
H       -3.03624994      -3.24230426      -3.07844986
H        0.14323341      -2.68215173      -0.25598654
H        1.44543851      -5.10038399      -4.70892658
H        1.45464801      -7.02773281      -6.26950175
H       -1.73766107      -8.85446090      -4.01644261
H       -3.82337615      -7.43331891      -3.04305195
H       -3.25198550      -8.54324416      -1.76785381
H       -5.51000644      -5.17013701       0.95943358
H       -7.63349734      -6.60979671       1.90639801
H       -7.48755774      -8.99368531       0.50520620
C       -0.14321175      -9.17784055      -6.14643718
C       -0.14146033     -10.11532629      -6.90508955
Br      -0.13862843     -11.63116145      -8.13176626
C        1.58174738       2.51574558       3.04460658
O        1.03058252       1.71990741       2.00441212
C       -0.33521141       1.72753927       1.87074675
C       -1.19641844       2.51559487       2.63790180
C       -2.57741762       2.46522330       2.42725508
C       -3.13870632       1.61799238       1.46039023
C       -2.27336505       0.83508475       0.68347685
C       -0.88935436       0.88935436       0.88935436
C       -4.64558804       1.59101463       1.20824965
H       -4.91110537       0.61304025       0.78211202
O       -4.84513736       2.57390180       0.14933772
C       -5.97211361       3.35233219       0.21016955
C       -6.05944569       4.39073686      -0.71681222
C       -7.16701480       5.23934223      -0.71116420
C       -8.18517429       5.03759336       0.22157354
C       -8.11118083       3.99424773       1.14459028
C       -6.99574208       3.14952849       1.14580319
C       -6.84595366       1.97509111       2.05405960
H       -7.20810353       1.08698539       1.50998628
C       -7.46033712       1.97343837       3.44450831
C       -6.55532514       0.99034154       4.14482154
N       -5.37827303       0.84278455       3.49032451
N       -5.44020811       1.84118763       2.40759415
C       -6.80898063       0.23597433       5.32172427
C       -5.99909676      -0.67931490       5.98850660
C       -6.70225240      -1.15767115       7.11624368
C       -7.91366656      -0.51636690       7.09333533
O       -7.99367603       0.31626438       6.02763430
H        2.66774198       2.38119655       3.02845843
H        1.22204229       2.19047989       4.02669535
H        1.37910528       3.57928985       2.87898204
H       -0.84169279       3.18073901       3.41630843
H       -3.24326194       3.07322323       3.04051888
H       -2.69063902       0.18443708      -0.08017124
H       -5.25541169       4.53974386      -1.43128349
H       -7.22212875       6.05043094      -1.42997315
H       -8.90879600       3.83538617       1.86438240
H       -7.41076098       2.95247784       3.93650819
H       -8.50136936       1.63531764       3.42639646
H       -5.00289774      -0.94663013       5.66444225
H       -6.36352565      -1.87433384       7.84770423
H       -8.78580838      -0.53798436       7.72821284
C       -9.32732946       5.91455706       0.22560296
C      -10.28388442       6.64901416       0.22897759
Br     -11.83055287       7.83656917       0.23443410
C        4.21402552      -0.27903092      -0.51445166
O        2.81507506      -0.16937524      -0.29071329
C        2.28140883      -0.94207747       0.71001113
C        3.03186007      -1.76208199       1.55597305
C        2.40378939      -2.51010546       2.55600114
C        1.01229439      -2.47505267       2.72974187
C        0.26059938      -1.64391057       1.88741670
C        0.88935436      -0.88935436       0.88935436
C        0.33229482      -3.26642878       3.84612873
H       -0.70817520      -3.46347063       3.55096220
O        0.27742121      -2.32892013       4.96203555
C        0.48375293      -2.82905697       6.22180546
C        0.58873523      -1.89365303       7.25098208
C        0.81531828      -2.31968218       8.56019237
C        0.92935393      -3.68384174       8.83114552
C        0.81397488      -4.62660649       7.80943747
C        0.59707701      -4.19906161       6.49493514
C        0.40618707      -5.12693048       5.34198682
H       -0.67878183      -5.27338049       5.21047654
C        1.08483848      -6.48671237       5.30673294
C        1.14607493      -6.72595973       3.81845357
N        1.01842422      -5.57071862       3.12223926
N        1.00495988      -4.52396668       4.16006333
C        1.28450862      -7.95784297       3.12432763
C        1.34004148      -8.21167340       1.75657358
C        1.49007416      -9.60334480       1.56740596
C        1.51957227     -10.14441271       2.82665001
O        1.39544677      -9.17611899       3.76600895
H        4.47102178       0.37795374      -1.35115504
H        4.49226863      -1.29999099      -0.79712667
H        4.78225127       0.06103959       0.35795493
H        4.10802730      -1.85770782       1.47300512
H        2.99590811      -3.15854900       3.20254694
H       -0.81687756      -1.59351451       2.01826791
H        0.50555243      -0.83521235       7.02310728
H        0.90501051      -1.58437348       9.35320256
H        0.89580938      -5.68794851       8.02480669
H        2.09614433      -6.47248997       5.73111271
H        0.49173430      -7.24836330       5.82298587
H        1.27893236      -7.44141113       1.00036638
H        1.56847983     -10.13576179       0.63265442
H        1.61825313     -11.14836348       3.20942025
C        1.16316624      -4.12130617      10.18301706
C        1.35898405      -4.48768263      11.31520948
Br       1.67560489      -5.08008238      13.14586887
