194
Properties=species:S:1:pos:R:3 pbc="F F F"
C        0.37620541       1.21218076      -5.11993067
O        0.54756524       1.16578612      -3.71009772
C        1.58298147       1.89658875      -3.18363928
C        2.41974500       2.72770278      -3.93217940
C        3.44687394       3.44299475      -3.30973937
C        3.67899465       3.33743259      -1.93037376
C        2.83241397       2.51143015      -1.17779460
C        1.79925838       1.79925838      -1.79925838
C        4.77994624       4.14745090      -1.24716726
H        5.08378986       3.62102849      -0.33115136
O        4.10775005       5.36955278      -0.82078612
C        4.80906464       6.54417314      -0.91108965
C        4.09495241       7.71425470      -0.65387530
C        4.73127065       8.95298019      -0.74065406
C        6.08376844       9.01088659      -1.07939823
Br       6.94411134      10.69219452      -1.19630697
C        6.80821242       7.84470778      -1.32681071
C        6.16776060       6.60306743      -1.24995781
C        6.86403788       5.29750394      -1.44327461
H        7.15925515       4.92856680      -0.44696532
C        8.05710844       5.17375699      -2.37713044
C        7.97938521       3.70938219      -2.73143290
N        6.74555188       3.20345922      -2.49208308
N        5.94534136       4.37662348      -2.09673711
C        9.00652726       2.86237598      -3.22748806
C        8.96800817       1.51080124      -3.55919113
C       10.24879098       1.12711605      -4.01462996
C       11.01888883       2.25895826      -3.94249998
O       10.29305695       3.30182588      -3.47240396
H       -0.46863246       0.56502067      -5.37523686
H        1.25901768       0.82550460      -5.64032275
H        0.12849581       2.22494884      -5.45543404
H        2.31668831       2.84759113      -5.00417287
H        4.10429174       4.07830747      -3.90411692
H        2.98896241       2.42999785      -0.10565667
H        3.04114090       7.65335254      -0.39909069
H        4.16551414       9.85874412      -0.54804037
H        7.86254051       7.89278356      -1.58295258
H        7.96053921       5.78871924      -3.28020064
H        8.99454331       5.42671856      -1.87153367
H        8.08278272       0.89636285      -3.47127637
H       10.56230503       0.15191993      -4.35238315
H       12.04858822       2.48156980      -4.17559091
C       -3.45375986      -3.92945953       0.67490254
O       -2.64825010      -2.89750294       0.12230395
C       -2.64677219      -2.77213977      -1.24429755
C       -3.43425594      -3.53974248      -2.10562876
C       -3.37421415      -3.33784591      -3.48754802
C       -2.51770003      -2.37959009      -4.04951087
C       -1.73532955      -1.60217291      -3.18413626
C       -1.79925838      -1.79925838      -1.79925838
C       -2.48003337      -2.13682817      -5.55770286
H       -1.49787981      -1.71826652      -5.81982337
O       -3.45520358      -1.07320660      -5.76967878
C       -4.22713386      -1.13619429      -6.90099928
C       -5.25930683      -0.20347536      -7.00030022
C       -6.10119021      -0.21073665      -8.11297805
C       -5.89896474      -1.15088469      -9.12420383
Br      -7.04223340      -1.15835103     -10.63202840
C       -4.86174578      -2.07975023      -9.03823490
C       -4.02383809      -2.07927795      -7.91766980
C       -2.85590228      -2.99371665      -7.75519752
H       -1.96230685      -2.45726833      -8.11521209
C       -2.85901335      -4.38787706      -8.36110546
C       -1.88572630      -5.08860487      -7.44586913
N       -1.74132340      -4.42783749      -6.27193329
N       -2.73269901      -3.33946347      -6.34653949
C       -1.13703657      -6.27159393      -7.68776080
C       -0.23077216      -6.93896150      -6.86826688
C        0.24494651      -8.07385682      -7.56162669
C       -0.38883845      -8.05445590      -8.77705272
O       -1.21444271      -6.98422754      -8.86861654
H       -3.32571121      -3.90749463       1.76158076
H       -3.13232171      -4.91568427       0.32316095
H       -4.51502247      -3.75862136       0.46476514
H       -4.10628451      -4.31191456      -1.75025324
H       -3.98189501      -3.95146288      -4.15335823
H       -1.07750727      -0.84505291      -3.60205675
H       -5.40882562       0.51678599      -6.20154450
H       -6.90752301       0.51263378      -8.17740939
H       -4.70244428      -2.80535285      -9.83047952
H       -3.84132314      -4.87361123      -8.31452472
H       -2.51447350      -4.37817855      -9.40014349
H        0.03246405      -6.61044653      -5.87243946
H        0.95505743      -8.80757245      -7.21409309
H       -0.36580470      -8.69476900      -9.64517523
C       -3.42236640       3.95741640      -0.67146595
O       -2.62765755       2.91626673      -0.12047519
C       -2.63635355       2.78163818       1.24521778
C       -3.42447589       3.54874136       2.10640993
C       -3.37523388       3.33707955       3.48729464
C       -2.52908748       2.36921580       4.04849772
C       -1.74611710       1.59236088       3.18316075
C       -1.79925838       1.79925838       1.79925838
C       -2.50335805       2.11598748       5.55521887
H       -1.52587484       1.68896765       5.82112722
O       -3.48713737       1.05763214       5.75331945
C       -4.26632407       1.11821713       6.87978622
C       -5.30544764       0.19191088       6.96572389
C       -6.15483466       0.19737566       8.07269459
C       -5.95314698       1.12924763       9.09165865
Br      -7.10660003       1.13429600      10.59171680
C       -4.90909473       2.05157589       9.01906029
C       -4.06358340       2.05298038       7.90422206
C       -2.88839613       2.96050903       7.75591128
H       -2.00093377       2.41554881       8.11830469
C       -2.88619330       4.35052012       8.37128245
C       -1.90195797       5.05077713       7.46746520
N       -1.75402984       4.39701051       6.29005382
N       -2.75324428       3.31494536       6.35051232
C       -1.14693647       6.22696397       7.72249087
C       -0.23060000       6.89367074       6.91372979
C        0.24805679       8.02056905       7.61802473
C       -0.39412317       7.99725670       8.82896719
O       -1.22756665       6.93209041       8.90762973
H       -3.28705813       3.94194298      -1.75737603
H       -3.09665964       4.93901871      -0.31083332
H       -4.48617142       3.79240306      -0.46969579
H       -4.08881586       4.32787126       1.75176519
H       -3.98327113       3.95030233       4.15314267
H       -1.09630750       0.82795545       3.60035398
H       -5.45439064      -0.52188404       6.16107753
H       -6.96647188      -0.52089636       8.12672310
H       -4.75028885       2.77068921       9.81729859
H       -3.86484815       4.84324978       8.32136116
H       -2.54882444       4.33142998       9.41254112
H        0.03719229       6.57012337       5.91749086
H        0.96547829       8.75176083       7.28032557
H       -0.37267443       8.63150000       9.70157450
C       -0.16225142      -1.98684995       4.88371831
O        0.19879675      -1.68074313       3.54390921
C        1.40657707      -2.15720743       3.09942500
C        2.25501402      -2.97367089       3.85094227
C        3.46584095      -3.42010136       3.31366576
C        3.87187914      -3.05269716       2.02222469
C        3.01530108      -2.24194689       1.26439076
C        1.79925838      -1.79925838       1.79925838
C        5.17928612      -3.57077799       1.42450029
H        5.51844950      -2.86027470       0.65724551
O        4.78947930      -4.78751599       0.72109366
C        5.65754326      -5.84807231       0.75871186
C        5.19393086      -7.04842359       0.22072796
C        6.00984699      -8.18021596       0.23484195
C        7.29034290      -8.10000783       0.78370253
Br       8.39465888      -9.63650554       0.80144841
C        7.76608947      -6.90034222       1.31329923
C        6.94423283      -5.76796191       1.30859110
C        7.37687767      -4.42729929       1.80063948
H        7.74551316      -3.85818338       0.93109073
C        8.38628254      -4.29247253       2.92924080
C        8.01430393      -2.93461196       3.47128441
N        6.76023265      -2.57750504       3.10335649
N        6.23291539      -3.77002382       2.41576275
C        8.80324299      -2.04465227       4.24849604
C        8.49164697      -0.78742187       4.75893170
C        9.61147079      -0.30629995       5.47276626
C       10.56269213      -1.28806047       5.36959446
O       10.09677554      -2.33031515       4.64019610
H       -1.13132849      -1.51925428       5.08369928
H        0.55959293      -1.57062939       5.59462270
H       -0.28208837      -3.06639689       5.02457017
H        2.02123842      -3.28505946       4.86215442
H        4.12857113      -4.04538968       3.91275532
H        3.30772063      -1.96039263       0.25650367
H        4.19226528      -7.09705679      -0.19573793
H        5.63739245      -9.11235481      -0.17744864
H        8.76591460      -6.83935161       1.73301044
H        8.26599210      -5.05751783       3.70594916
H        9.41540246      -4.32035710       2.55703598
H        7.53775887      -0.29998457       4.61267850
H        9.70548248       0.63314977       5.99427540
H       11.57105012      -1.39697365       5.73772516
C       -0.00445707       0.01189536      -1.78238275
H       -0.66409135       0.67374010      -2.43557963
H        0.65740317      -0.63156657      -2.45157240
C       -0.90989263      -0.90692880      -0.91072765
C        0.90977584       0.90977584      -0.90977584
C       -0.00465871       1.77757030       0.00794375
H       -0.66225468       2.44313916      -0.64384735
H        0.64322798       2.43503045       0.67728295
C       -1.78241447       0.00034974      -0.00472694
H       -2.45427497      -0.65498947       0.64260836
H       -2.43311707       0.67328779      -0.65473579
C       -0.91132561       0.90220522       0.91563759
C       -0.01476271      -0.02253852       1.78660255
H       -0.67934791      -0.69751639       2.42135241
H        0.63392994       0.61504881       2.47327442
C        0.01484550      -1.77751727      -0.01636693
H        0.67870853      -2.42144646      -0.68295456
H       -0.62264859      -2.45592969       0.64226336
C        1.78714474       0.01002794       0.00389507
H        2.44202412       0.67113390       0.66197326
H        2.45385902      -0.65136977      -0.64189061
C        0.91606151      -0.90478549       0.90901405
