193
Properties=species:S:1:pos:R:3 pbc="F F F"
C        0.00000000       0.00000000       0.00000000
C        0.85308678       2.65756514      -9.96000934
O        0.16289471       1.41495125      -9.89113951
C        0.48931209       0.60642861      -8.83276529
C       -0.18836298      -0.61237875      -8.79697302
C        0.06003626      -1.52418940      -7.77358843
C        0.98945312      -1.21696664      -6.77638528
C        1.67826453       0.00327511      -6.77934051
C        1.41403148       0.90448811      -7.82645609
C        2.64411322       0.33458292      -5.72094453
C        2.94763446      -0.52179520      -4.53468593
C        3.58769340       0.46847255      -3.55586229
H        4.36853684      -0.03691164      -2.97441920
C        2.60495223       1.09220160      -2.58301872
C        1.79961972       0.29363946      -1.75315852
C        0.88269205       0.88269205      -0.88269205
C        0.76097296       2.26794264      -0.81302757
C        1.57768854       3.06745868      -1.61142839
C        2.50592652       2.48193426      -2.47595760
O        3.27997420       3.34655418      -3.19829655
C        4.42097768       2.73827151      -3.81320458
C        5.62691301       2.57530538      -2.74897486
O        5.67887300       1.91737848      -1.71474693
N        6.67899451       3.39424892      -3.16464680
C        6.34542212       4.10167080      -4.30344027
C        7.13837932       5.02905676      -4.95247560
C        6.60016358       5.67026761      -6.07137622
C        5.29546295       5.37174739      -6.50167209
Br       4.59329892       6.26500490      -8.01591792
C        4.51134558       4.43334563      -5.82998437
C        5.05481170       3.78729031      -4.72585417
N        4.18322021       1.44068576      -4.48326457
N        3.31860170       1.49670184      -5.69375783
H        0.49877043       3.18449945     -10.85139238
H        1.93194813       2.50700146     -10.07273665
H        0.62513593       3.28615901      -9.09279232
H       -0.91051762      -0.85048794      -9.57151898
H       -0.46603565      -2.47291407      -7.74714443
H        1.17079474      -1.94471106      -5.99229856
H        1.95601848       1.84470633      -7.82257169
H        3.66980295      -1.29455405      -4.82797993
H        2.05862582      -1.01193929      -4.12970276
H        1.88779719      -0.78775250      -1.80252268
H        0.04356099       2.73300776      -0.14526783
H        1.50051123       4.14922797      -1.56442355
H        7.54345396       3.45076950      -2.65576616
H        8.14030868       5.25600434      -4.60960523
H        7.19845837       6.40186109      -6.60673114
H        3.50587162       4.18153094      -6.15440546
C       -8.45510500      -5.89344593       0.87788966
O       -7.86535156      -5.77084824       2.16721433
C       -6.50305827      -5.61581953       2.19037182
C       -5.94745184      -5.51472883       3.46594939
C       -4.57196732      -5.36001177       3.62254379
C       -3.74427850      -5.30274081       2.49814755
C       -4.27370221      -5.39095764       1.20377969
C       -5.66476801      -5.55260075       1.07239308
C       -3.40528456      -5.31376957       0.01941345
C       -1.92988276      -5.07911396       0.04847154
C       -1.63396940      -4.60097193      -1.37708691
H       -0.64846805      -4.96440334      -1.69317302
C       -1.65281505      -3.09234744      -1.53501006
C       -0.83420819      -2.26958812      -0.74262139
C       -0.88269205      -0.88269205      -0.88269205
C       -1.73098001      -0.29413968      -1.81682348
C       -2.52400598      -1.10521283      -2.62735680
C       -2.46973292      -2.49531873      -2.49876674
O       -3.26303139      -3.20735980      -3.35443373
C       -2.94645675      -4.60197313      -3.42402390
C       -1.68837933      -4.85582287      -4.40699104
O       -0.52740292      -4.47043353      -4.31316195
N       -2.14295181      -5.59112156      -5.50381686
C       -3.50229008      -5.82432280      -5.42392030
C       -4.27598539      -6.48366194      -6.36026435
C       -5.64793938      -6.58075150      -6.11311654
C       -6.20161185      -6.01694397      -4.95032660
Br      -8.06541714      -6.15857050      -4.65023410
C       -5.40203897      -5.35352390      -4.01911270
C       -4.03586489      -5.27092150      -4.26116978
N       -2.69901975      -5.27721101      -2.13093978
N       -3.88200509      -5.39237528      -1.23468100
H       -9.53339909      -6.01847968       1.01721651
H       -8.08488104      -6.78133545       0.35453025
H       -8.30221534      -4.98607626       0.28420434
H       -6.59073853      -5.55885643       4.33908154
H       -4.14001528      -5.28322003       4.61504060
H       -2.67535385      -5.18746162       2.64443323
H       -6.06458691      -5.62476663       0.06605704
H       -1.42117193      -6.03084480       0.24878790
H       -1.63247140      -4.35766643       0.81374853
H       -0.17068640      -2.72106033      -0.01082065
H       -1.78097643       0.78413143      -1.92499157
H       -3.18579852      -0.66290932      -3.36545492
H       -1.52929600      -5.87293219      -6.24776143
H       -3.84052582      -6.90969702      -7.25569541
H       -6.28393867      -7.09593707      -6.82717486
H       -5.81014016      -4.92177830      -3.10988956
C       -4.02255146      -0.08104062       9.52915042
O       -3.73473002      -1.42464421       9.15889967
C       -3.81631351      -1.70737033       7.81956280
C       -3.54617659      -3.03426732       7.48432202
C       -3.60220427      -3.44820754       6.15543857
C       -3.92735481      -2.53105954       5.15257650
C       -4.19359659      -1.18937894       5.45666251
C       -4.13622207      -0.79760331       6.80635693
C       -4.51927494      -0.21967773       4.40004347
C       -4.54256871      -0.51815933       2.93611580
C       -4.43433249       0.87366002       2.30403573
H       -5.02108817       0.90709833       1.37785791
C       -3.01293728       1.29049816       1.97673711
C       -2.19586387       0.49783382       1.15272001
C       -0.88269205       0.88269205       0.88269205
C       -0.36670823       2.06208135       1.41315359
C       -1.18078893       2.86882962       2.20695706
C       -2.50047104       2.49324089       2.47010645
O       -3.22874372       3.36059770       3.23548351
C       -4.63991861       3.11958686       3.21294830
C       -5.30901242       3.75610257       1.88607826
O       -5.11924632       3.48767705       0.70407503
N       -6.16909812       4.78002846       2.28876364
C       -6.14150444       4.94946344       3.65956530
C       -6.83947545       5.89942060       4.38101563
C       -6.64348036       5.93414614       5.76418092
C       -5.76009217       5.02969948       6.37909078
Br      -5.51071231       5.10949851       8.25401092
C       -5.06375240       4.07992716       5.63099601
C       -5.27161236       4.03901698       4.25732684
N       -5.05968984       1.70655738       3.34092331
N       -4.77689309       1.07380519       4.65836309
H       -3.92696753      -0.00933707      10.61703179
H       -5.05117427       0.19084530       9.26966666
H       -3.30120877       0.61483664       9.08804185
H       -3.29325739      -3.74628674       8.26354277
H       -3.39375005      -4.48088300       5.89532766
H       -3.97047737      -2.87726018       4.12516506
H       -4.34870165       0.24241109       7.03218376
H       -5.50396727      -0.98276020       2.68202176
H       -3.73853895      -1.19236052       2.63021087
H       -2.59067169      -0.42422496       0.73612064
H        0.65652660       2.36318638       1.21517680
H       -0.79642923       3.79499663       2.62273690
H       -6.70323401       5.31763222       1.62912338
H       -7.51349143       6.59539902       3.89702780
H       -7.17970559       6.66614105       6.36120396
H       -4.38606595       3.36589824       6.08984384
C       10.02969764      -2.20897216       1.23199147
O        9.84478932      -1.71331369      -0.08911754
C        8.62194175      -1.96352827      -0.65696404
C        8.47155856      -1.48235818      -1.95768546
C        7.27604295      -1.67857830      -2.64518595
C        6.22110224      -2.35746554      -2.02969602
C        6.33813507      -2.84337435      -0.72062926
C        7.55721892      -2.63760423      -0.04984747
C        5.22250561      -3.54310180      -0.06596673
C        3.87022702      -3.75541683      -0.66511867
C        2.99899420      -4.05310789       0.55992615
H        2.22540067      -4.78462217       0.29602157
C        2.31313090      -2.82950601       1.13753564
C        1.48516266      -2.01876512       0.34248992
C        0.88269205      -0.88269205       0.88269205
C        1.08104498      -0.54267829       2.21821990
C        1.87687907      -1.35871669       3.02097985
C        2.47249999      -2.50419137       2.48712702
O        3.21247066      -3.25531351       3.35704076
C        3.52920029      -4.56644559       2.87680788
C        2.28325624      -5.57319922       3.09473778
O        1.15226467      -5.53815298       2.62058075
N        2.67491871      -6.54669503       4.01627649
C        3.95895430      -6.31917365       4.47240524
C        4.63602491      -7.06609276       5.41779402
C        5.91978892      -6.64605563       5.77596286
C        6.48180641      -5.49962543       5.18745059
Br       8.21976417      -4.95281898       5.70163859
C        5.77940780      -4.75891384       4.23635393
C        4.50834469      -5.18742830       3.87218319
N        3.98453343      -4.65108563       1.47155147
N        5.30200400      -4.01847430       1.18858307
H       11.04405519      -1.94430287       1.54630420
H        9.94942709      -3.30076184       1.26149731
H        9.33339819      -1.73734643       1.93334264
H        9.29108188      -0.95472371      -2.43529216
H        7.16014509      -1.30568021      -3.65763059
H        5.30127833      -2.50347982      -2.58637591
H        7.63970609      -3.02183701       0.96175341
H        3.90812426      -4.62668149      -1.33157693
H        3.52312007      -2.89271564      -1.23944642
H        1.32647261      -2.27664627      -0.70055151
H        0.62334639       0.34444872       2.64293890
H        2.03626898      -1.11189502       4.06599875
H        2.05971815      -7.28761127       4.30266019
H        4.19193493      -7.94460463       5.86937868
H        6.48072751      -7.21296351       6.51335957
H        6.20164982      -3.87741265       3.76274556
