174
Properties=species:S:1:pos:R:3 pbc="F F F"
C        1.79115576       1.79115576      -1.79115576
C        2.88339761       2.45332341      -1.23845468
C        3.68546033       3.26340590      -2.04887113
C        3.40450902       3.41076063      -3.41290426
C        2.30545908       2.73915048      -3.95357734
C        1.49792077       1.93141750      -3.14443688
N        4.25484665       4.25074433      -4.15675442
C        4.22494926       4.50772428      -5.51514551
O        3.46472371       3.99716904      -6.33237928
C        5.23719286       5.47907245      -5.91656540
N        6.09122540       6.08095584      -5.01932904
N        6.86572785       6.92378792      -5.68477282
N        6.54038750       6.83734882      -6.99425029
C        7.18168997       7.71538987      -7.95674525
C        8.66958973       7.47528428      -8.06110101
C        9.57188521       8.50389716      -7.74678391
C       10.94918061       8.29579600      -7.83924168
C       11.44305466       7.05833274      -8.24852695
C       10.55464951       6.03411629      -8.56811632
C        9.17617205       6.23512132      -8.48269259
C        5.50705654       5.95032318      -7.19199340
N        4.93644987       5.68352516      -8.38927905
H        3.11990752       2.34826865      -0.18253995
H        4.53367595       3.77202075      -1.59707925
H        2.03831818       2.82742644      -5.00210449
H        0.64511577       1.42207652      -3.58451115
H        4.99120251       4.73153360      -3.64935679
H        6.96135820       8.74080185      -7.63698317
H        6.72150771       7.57564051      -8.93987379
H        9.20907413       9.47519791      -7.41440967
H       11.63792777       9.09795705      -7.58439571
H       12.51681096       6.90252173      -8.30987577
H        8.49752554       5.42182155      -8.73042915
H        4.22328445       4.94819134      -8.43522452
H        5.36883767       5.87190606      -9.28872961
C       11.06390066       4.75422321      -8.98780307
C       11.49039850       3.68231276      -9.33929072
Br      12.18000943       1.94912421      -9.90761653
C       -1.79115576      -1.79115576      -1.79115576
C       -2.88065223      -2.45703153      -1.23749194
C       -3.68271575      -3.26709516      -2.04792645
C       -3.40451390      -3.41074168      -3.41291833
C       -2.30820348      -2.73543519      -3.95454824
C       -1.50066199      -1.92770582      -3.14540735
N       -4.25463440      -4.25096535      -4.15674566
C       -4.22722546      -4.50481612      -5.51577746
O       -3.46999935      -3.99070572      -6.33356696
C       -5.23818196      -5.47754064      -5.91710811
N       -6.08882819      -6.08337080      -5.01931130
N       -6.86293043      -6.92644823      -5.68490993
N       -6.54074330      -6.83632479      -6.99491852
C       -7.18223767      -7.71364101      -7.95794641
C       -8.67090643      -7.47666123      -8.05840735
C       -9.57017021      -8.50801441      -7.74438167
C      -10.94813621      -8.30281596      -7.83326612
C      -11.44571982      -7.06555208      -8.23864244
C      -10.56034832      -6.03861480      -8.55791900
C       -9.18123213      -6.23669864      -8.47605519
C       -5.50986250      -5.94652489      -7.19298573
N       -4.94256329      -5.67574240      -8.39094839
H       -3.11501335      -2.35489025      -0.18081252
H       -4.52876103      -3.77864056      -1.59537436
H       -2.04323264      -2.82074524      -5.00387123
H       -0.65000253      -1.41545033      -3.58625058
H       -4.98875762      -4.73455800      -3.64877728
H       -6.95887482      -8.73927066      -7.64099774
H       -6.72459251      -7.57063835      -8.94179114
H       -9.20442220      -9.47923980      -7.41501971
H      -11.63449721      -9.10710227      -7.57868105
H      -12.51996022      -6.91202820      -8.29722004
H       -8.50498077      -5.42131248      -8.72348299
H       -4.23116190      -4.93869847      -8.43683994
H       -5.37655546      -5.86307227      -9.28984561
C      -11.07342804      -4.75893260      -8.97356630
C      -11.50313230      -3.68719876      -9.32167091
Br     -12.19792775      -1.95429579      -9.88452663
C       -1.79115576       1.79115576       1.79115576
C       -1.72627611       1.67258389       3.17631570
C       -2.53897790       2.47900877       3.97975069
C       -3.41372537       3.40944647       3.40500207
C       -3.46708883       3.51775673       2.01334135
C       -2.65860649       2.70897045       1.20619821
N       -4.20342749       4.17604588       4.28287204
C       -5.08800690       5.19134327       3.96846887
O       -5.30459717       5.64209497       2.84757988
C       -5.76753372       5.71759195       5.14770504
N       -5.55755020       5.21955347       6.41440662
N       -6.33437381       5.88412639       7.25578839
N       -7.00516934       6.81987329       6.54694397
C       -7.99708709       7.65082431       7.20591370
C       -7.39667429       8.53867382       8.27062691
C       -7.80584885       8.40936599       9.60735145
C       -7.25959236       9.22350255      10.60112338
C       -6.29900085      10.17847467      10.27243883
C       -5.89174490      10.31754633       8.94759089
C       -6.43601901       9.51074406       7.94722288
C       -6.69454435       6.74647135       5.20835742
N       -7.23826156       7.52568462       4.24530790
H       -1.05065580       0.95888246       3.64117786
H       -2.47295006       2.37022303       5.05960285
H       -4.13477413       4.21555549       1.51751949
H       -2.71970464       2.80616625       0.12583255
H       -4.12169131       3.97558027       5.27482132
H       -8.74472858       6.96789771       7.62651693
H       -8.50573189       8.27046800       6.46082212
H       -8.54677440       7.66289149       9.88901582
H       -7.57848353       9.10741927      11.63437773
H       -5.87311859      10.80245835      11.05363152
H       -6.10146025       9.62938568       6.91893031
H       -6.87901372       7.43884718       3.28883942
H       -7.70039469       8.41397532       4.41510333
C       -4.89691365      11.30153518       8.60747810
C       -4.06374248      12.12562585       8.32263365
Br      -2.71657516      13.45811076       7.86206425
C        1.79115576      -1.79115576       1.79115576
C        1.92066352      -1.50708619       3.14742600
C        2.73288230      -2.31466879       3.95018626
C        3.41308376      -3.41051165       3.40457850
C        3.27256697      -3.68372542       2.04189452
C        2.46429334      -2.87479013       1.23469169
N        4.21688064      -4.16734807       4.27811669
C        4.93082799      -5.31818431       3.99880675
O        4.94694373      -5.91879571       2.92853259
C        5.69280188      -5.78943691       5.15059193
N        5.70754438      -5.12638748       6.35757843
N        6.50562263      -5.78525291       7.18341305
N        6.96693937      -6.87522960       6.52981763
C        7.93409897      -7.74680072       7.17292541
C        7.37914254      -8.42117424       8.40565824
C        7.97048229      -8.19362306       9.65846094
C        7.46810899      -8.81056442      10.80554488
C        6.36984348      -9.66410408      10.71596678
C        5.78081521      -9.90015838       9.47590853
C        6.27953866      -9.29093964       8.32350765
C        6.49566712      -6.91614158       5.23756441
N        6.81678156      -7.86461046       4.32786206
H        1.39745660      -0.66315510       3.59010443
H        2.82050490      -2.07510504       5.00716601
H        3.78576389      -4.51451505       1.56757017
H        2.37307819      -3.10235813       0.17626712
H        4.28813675      -3.84553309       5.23842306
H        8.80336381      -7.12300870       7.41277071
H        8.26726577      -8.50856122       6.46119503
H        8.82238559      -7.52230729       9.75398882
H        7.92961998      -8.61912412      11.77153643
H        5.98023908     -10.13377416      11.61519522
H        5.80294759      -9.48229672       7.36453194
H        6.34876510      -7.84215206       3.41578315
H        7.19208914      -8.77998811       4.55739610
C        4.64401604     -10.77914224       9.38276867
C        3.69194673     -11.51529121       9.30476403
Br       2.15253119     -12.70558185       9.17863713
C       -0.00445707       0.01189536      -1.78238275
H       -0.66409135       0.67374010      -2.43557963
H        0.65740317      -0.63156657      -2.45157240
C       -0.90989263      -0.90692880      -0.91072765
C        0.90977584       0.90977584      -0.90977584
C       -0.00465871       1.77757030       0.00794375
H       -0.66225468       2.44313916      -0.64384735
H        0.64322798       2.43503045       0.67728295
C       -1.78241447       0.00034974      -0.00472694
H       -2.45427497      -0.65498947       0.64260836
H       -2.43311707       0.67328779      -0.65473579
C       -0.91132561       0.90220522       0.91563759
C       -0.01476271      -0.02253852       1.78660255
H       -0.67934791      -0.69751639       2.42135241
H        0.63392994       0.61504881       2.47327442
C        0.01484550      -1.77751727      -0.01636693
H        0.67870853      -2.42144646      -0.68295456
H       -0.62264859      -2.45592969       0.64226336
C        1.78714474       0.01002794       0.00389507
H        2.44202412       0.67113390       0.66197326
H        2.45385902      -0.65136977      -0.64189061
C        0.91606151      -0.90478549       0.90901405
