145
Properties=species:S:1:pos:R:3 pbc="F F F"
C        0.00000000       0.00000000       0.00000000
C        0.88125174       0.88125174      -0.88125174
C        1.97349358       1.54341939      -0.32855066
C        2.77555631       2.35350187      -1.13896711
C        2.49460500       2.50085660      -2.50300023
C        1.39555506       1.82924646      -3.04367332
C        0.58801674       1.02151348      -2.23453286
N        3.34494262       3.34084031      -3.24685040
C        3.31504523       3.59782025      -4.60524149
O        2.55481968       3.08726502      -5.42247525
C        4.32728884       4.56916842      -5.00666138
N        5.18132138       5.17105182      -4.10942502
N        5.95582382       6.01388390      -4.77486880
N        5.63048348       5.92744479      -6.08434626
C        6.27178595       6.80548585      -7.04684123
C        7.75968570       6.56538025      -7.15119698
C        8.66198119       7.59399314      -6.83687989
C       10.03927659       7.38589198      -6.92933765
C       10.53315063       6.14842872      -7.33862292
C        9.64474549       5.12421227      -7.65821229
Br      10.31342820       3.44362229      -8.20929063
C        8.26626802       5.32521729      -7.57278856
C        4.59715251       5.04041916      -6.28208938
N        4.02654584       4.77362114      -7.47937503
H        2.21000349       1.43836463       0.72736407
H        3.62377192       2.86211673      -0.68717522
H        1.12841416       1.91752242      -4.09220046
H       -0.26478825       0.51217249      -2.67460713
H        4.08129849       3.82162958      -2.73945277
H        6.05145418       7.83089782      -6.72707914
H        5.81160369       6.66573648      -8.02996976
H        8.29917011       8.56529388      -6.50450564
H       10.72802375       8.18805302      -6.67449169
H       11.60690694       5.99261771      -7.39997175
H        7.58762151       4.51191753      -7.82052513
H        3.31338043       4.03828732      -7.52532049
H        4.45893364       4.96200203      -8.37882559
C       -0.88125174      -0.88125174      -0.88125174
C       -0.69603550      -2.26059003      -0.88883810
C       -1.50290103      -3.06374267      -1.70138159
C       -2.49995362      -2.49491093      -2.50359728
C       -2.67467453      -1.10912125      -2.48467906
C       -1.86582726      -0.30196046      -1.67627536
N       -3.26254499      -3.37146933      -3.29861901
C       -4.33275580      -3.06604665      -4.11930452
O       -4.84456727      -1.95943990      -4.26055278
C       -4.83633785      -4.23677096      -4.83000983
N       -4.27095021      -5.48627876      -4.70456924
N       -4.93280072      -6.32209836      -5.48967744
N       -5.93148001      -5.62911633      -6.08167819
C       -6.77811945      -6.28105777      -7.06493580
C       -7.58598676      -7.41390086      -6.47637532
C       -7.41517133      -8.72256660      -6.95511628
C       -8.15537037      -9.77857478      -6.42056107
C       -9.07698083      -9.54094755      -5.40227390
C       -9.25708412      -8.24451492      -4.92557101
Br     -10.50376062      -7.92143012      -3.54115037
C       -8.52441106      -7.18237066      -5.45749216
C       -5.90487995      -4.30427035      -5.71051074
N       -6.75294450      -3.35594458      -6.17065293
H        0.07009217      -2.72107361      -0.27002260
H       -1.34145095      -4.13897848      -1.69263443
H       -3.42597740      -0.61734465      -3.09481499
H       -2.01549891       0.77412018      -1.68061264
H       -3.01290831      -4.35529591      -3.27417661
H       -6.11343717      -6.63333549      -7.86265848
H       -7.45524150      -5.54411679      -7.50795164
H       -6.69315566      -8.93345669      -7.74235728
H       -8.00736466     -10.78924156      -6.79396224
H       -9.64304880     -10.37012888      -4.98631871
H       -8.67398467      -6.17749948      -5.06858002
H       -6.69299802      -2.41395572      -5.77003451
H       -7.65374601      -3.54696194      -6.59905332
C       -0.88125174       0.88125174       0.88125174
C       -0.33571640       1.51728409       1.99246314
C       -1.14809399       2.32021379       2.79971751
C       -2.50435224       2.49592548       2.49818411
C       -3.03744773       1.85195278       1.37907433
C       -2.22839099       1.04391442       0.57175767
N       -3.25465222       3.31238509       3.36559602
C       -4.58094882       3.68642180       3.25073635
O       -5.33559841       3.40412705       2.32483450
C       -5.02569657       4.49974223       4.37767984
N       -4.20650805       4.81696522       5.43832495
N       -4.90557614       5.53716085       6.30183953
N       -6.14340006       5.71206053       5.78681395
C       -7.15678593       6.40448947       6.56283763
C       -6.79949616       7.84812293       6.82864385
C       -6.64259722       8.30259162       8.14766537
C       -6.31296045       9.63397698       8.40756879
C       -6.13755175      10.52904186       7.35360866
C       -6.29728204      10.08787229       6.04201572
Br      -6.05524712      11.29996881       4.61112519
C       -6.63115738       8.75958656       5.77352993
C       -6.27568592       5.06377422       4.58020091
N       -7.41104653       5.02283261       3.84566287
H        0.71582009       1.39626076       2.24056337
H       -0.70206425       2.80781265       3.66318697
H       -4.08415679       1.94685974       1.10712051
H       -2.66469450       0.54832639      -0.29102952
H       -2.77650194       3.68650178       4.17937711
H       -7.27277061       5.84062176       7.49603877
H       -8.11414209       6.35873853       6.03442931
H       -6.76402980       7.61874305       8.98619678
H       -6.18549271       9.97155710       9.43351865
H       -5.87303778      11.56173565       7.56472296
H       -6.74586071       8.43149298       4.74271048
H       -7.37816067       4.57501674       2.92381082
H       -8.18313991       5.67571766       3.94090370
C        0.88125174      -0.88125174       0.88125174
C        2.26606928      -0.82471588       0.75467846
C        3.06946972      -1.63740089       1.56115468
C        2.49507457      -2.50379655       2.49959072
C        1.10376305      -2.54883712       2.61587466
C        0.29661819      -1.74036389       1.80708100
N        3.37281362      -3.29411549       3.26570422
C        3.05917263      -4.17131931       4.28761503
O        1.93962417      -4.37919442       4.74574136
C        4.23754283      -4.85446539       4.81111041
N        5.50260052      -4.65426705       4.30493065
N        6.34335734      -5.43206848       4.96915070
N        5.63602563      -6.09374493       5.91250398
C        6.29411222      -7.08470328       6.74529753
C        7.36703401      -6.48531763       7.62391130
C        8.70074165      -6.90261192       7.48950064
C        9.70201635      -6.35739404       8.29509583
C        9.38394348      -5.38973714       9.24652165
C        8.06215567      -4.97437344       9.39064094
Br       7.62995750      -3.65852022      10.67786339
C        7.05433674      -5.51753190       8.59240523
C        4.29878710      -5.77610566       5.84476829
N        3.33709070      -6.31016083       6.63229047
H        2.73068516      -0.15563522       0.03468366
H        4.14904948      -1.57796847       1.44604593
H        0.60814396      -3.20989897       3.32009411
H       -0.78351217      -1.79492789       1.91057565
H        4.36407108      -3.21899337       3.05931638
H        6.70678606      -7.83842534       6.06421974
H        5.54967506      -7.58577745       7.37185743
H        8.97416529      -7.64919789       6.74560645
H       10.73283479      -6.68265050       8.17508316
H       10.17092576      -4.96475953       9.86381110
H        6.02858060      -5.17662175       8.71486182
H        2.38215234      -5.94609504       6.54874086
H        3.50926018      -6.76831950       7.52218158
