166
Properties=species:S:1:pos:R:3 pbc="F F F"
C        1.79115576       1.79115576      -1.79115576
C        2.88339761       2.45332341      -1.23845468
C        3.68546033       3.26340590      -2.04887113
C        3.40450902       3.41076063      -3.41290426
C        2.30545908       2.73915048      -3.95357734
C        1.49792077       1.93141750      -3.14443688
N        4.25484665       4.25074433      -4.15675442
C        4.22494926       4.50772428      -5.51514551
O        3.46472371       3.99716904      -6.33237928
C        5.23719286       5.47907245      -5.91656540
N        6.09122540       6.08095584      -5.01932904
N        6.86572785       6.92378792      -5.68477282
N        6.54038750       6.83734882      -6.99425029
C        7.18168997       7.71538987      -7.95674525
C        8.66958973       7.47528428      -8.06110101
C        9.57188521       8.50389716      -7.74678391
C       10.94918061       8.29579600      -7.83924168
C       11.44305466       7.05833274      -8.24852695
C       10.55464951       6.03411629      -8.56811632
Br      11.22333222       4.35352631      -9.11919465
C        9.17617205       6.23512132      -8.48269259
C        5.50705654       5.95032318      -7.19199340
N        4.93644987       5.68352516      -8.38927905
H        3.11990752       2.34826865      -0.18253995
H        4.53367595       3.77202075      -1.59707925
H        2.03831818       2.82742644      -5.00210449
H        0.64511577       1.42207652      -3.58451115
H        4.99120251       4.73153360      -3.64935679
H        6.96135820       8.74080185      -7.63698317
H        6.72150771       7.57564051      -8.93987379
H        9.20907413       9.47519791      -7.41440967
H       11.63792777       9.09795705      -7.58439571
H       12.51681096       6.90252173      -8.30987577
H        8.49752554       5.42182155      -8.73042915
H        4.22328445       4.94819134      -8.43522452
H        5.36883767       5.87190606      -9.28872961
C       -1.79115576      -1.79115576      -1.79115576
C       -2.84287556      -2.50629611      -1.22600403
C       -3.64495775      -3.31610343      -2.03667618
C       -3.40458632      -3.41048600      -3.41310160
C       -2.34597037      -2.68607259      -3.96614395
C       -1.53838543      -1.87839097      -3.15699876
N       -4.25174236      -4.25388052      -4.15672252
C       -4.25847402      -4.46623312      -5.52311191
O       -3.54230467      -3.90504995      -6.34691740
C       -5.25187719      -5.45712663      -5.92382689
N       -6.05620010      -6.11518992      -5.02012027
N       -6.82492397      -6.96143196      -5.68793265
N       -6.54587545      -6.82254495      -7.00356620
C       -7.19021293      -7.69008150      -7.97353067
C       -8.68765210      -7.49597094      -8.02235197
C       -9.54578835      -8.56329437      -7.71348356
C      -10.93132552      -8.39788644      -7.75500634
C      -11.47768738      -7.16494900      -8.10727797
C      -10.63346034      -6.10230716      -8.42111462
Br     -11.37327125      -4.42794851      -8.89483343
C       -9.24720092      -6.26036287      -8.38642216
C       -5.54847646      -5.89605966      -7.20483701
N       -5.02647832      -5.57249654      -8.41027922
H       -3.04766423      -2.44286563      -0.16018626
H       -4.46113933      -3.86658259      -1.57505402
H       -2.11087505      -2.73196756      -5.02500651
H       -0.71725602      -1.32740918      -3.60703824
H       -4.95523653      -4.77464946      -3.64220692
H       -6.92682796      -8.71735486      -7.69496040
H       -6.76740311      -7.50391267      -8.96570623
H       -9.14138594      -9.53221699      -7.42507878
H      -11.58533012      -9.23005474      -7.50489566
H      -12.55730988      -7.04275804      -8.12914055
H       -8.60340747      -5.41762771      -8.62874106
H       -4.33905762      -4.81294938      -8.45469331
H       -5.48206133      -5.74622239      -9.30118961
C       -1.79115576       1.79115576       1.79115576
C       -1.62895503       1.77293051       3.17329016
C       -2.44182175       2.57874374       3.97717187
C       -3.41399314       3.40886339       3.40531737
C       -3.56444050       3.41716766       2.01657874
C       -2.75585072       2.60847520       1.20944924
N       -4.19640822       4.18165307       4.28428411
C       -5.16741813       5.11359119       3.96680972
O       -5.48652163       5.47095911       2.83679128
C       -5.80410194       5.67502449       5.15370428
N       -5.47889744       5.28022141       6.43239144
N       -6.24380374       5.94975378       7.28073107
N       -7.02196003       6.78906841       6.56095816
C       -8.02426021       7.59775439       7.23181050
C       -7.41909215       8.59389601       8.19298686
C       -7.73120907       8.53103417       9.56032305
C       -7.17944590       9.44539897      10.45937341
C       -6.31030316      10.43541990      10.00419129
C       -6.00000358      10.50869791       8.64818063
Br      -4.81759904      11.84846233       8.02999182
C       -6.55072541       9.60130718       7.74195335
C       -6.79407723       6.64363713       5.21165876
N       -7.45132899       7.31777356       4.24015153
H       -0.87707634       1.13813495       3.63550482
H       -2.29886419       2.54925745       5.05465430
H       -4.30932059       4.03450667       1.52402186
H       -2.89313366       2.62670626       0.13186352
H       -4.03715836       4.05584294       5.27909160
H       -8.69425325       6.89865482       7.74623515
H       -8.62150906       8.13034705       6.48516589
H       -8.39909896       7.75951287       9.94006988
H       -7.42218860       9.38058052      11.51751141
H       -5.87897182      11.13803600      10.71220065
H       -6.29224156       9.67002656       6.68750813
H       -7.14944399       7.18848626       3.26877006
H       -7.96175600       8.18397423       4.38374310
C        1.79115576      -1.79115576       1.79115576
C        1.71340821      -1.68509951       3.17666798
C        2.52613511      -2.49144489       3.98015735
C        3.41376308      -3.40937151       3.40503932
C        3.47996235      -3.50520934       2.01301521
C        2.67146594      -2.69643463       1.20587458
N        4.20251160      -4.17673339       4.28310041
C        5.09847582      -5.18167572       3.96766750
O        5.32852825      -5.62086970       2.84487407
C        5.77240523      -5.71224745       5.14817803
N        5.54730367      -5.22697180       6.41723482
N        6.32260645      -5.89211005       7.25957209
N        7.00749048      -6.81593318       6.54856295
C        8.00086759      -7.64402324       7.20893427
C        7.39905164      -8.54613041       8.26079296
C        7.79564503      -8.42486569       9.60205557
C        7.24795224      -9.25218996      10.58407610
C        6.29848340     -10.21247307      10.23895788
C        5.90379114     -10.34358697       8.90950402
Br       4.61257276     -11.64285985       8.44062058
C        6.44962140      -9.52355650       7.92080805
C        6.70770625      -6.73364397       5.20802291
N        7.26634533      -7.49983872       4.24307003
H        1.02770286      -0.98124154       3.64177172
H        2.44993571      -2.39254953       5.06029070
H        4.15786092      -4.19296656       1.51702164
H        2.74264040      -2.78377866       0.12528438
H        4.11056594      -3.98554083       5.27598613
H        8.73896314      -6.95838040       7.64179968
H        8.52119546      -8.25284088       6.46298568
H        8.52766538      -7.67453826       9.89647807
H        7.55697908      -9.14230267      11.62099878
H        5.87133377     -10.84679450      11.01108020
H        6.12490774      -9.63617878       6.88868971
H        6.91455701      -7.40782806       3.28431525
H        7.73465642      -8.38557553       4.40924140
C       -0.00445707       0.01189536      -1.78238275
H       -0.66409135       0.67374010      -2.43557963
H        0.65740317      -0.63156657      -2.45157240
C       -0.90989263      -0.90692880      -0.91072765
C        0.90977584       0.90977584      -0.90977584
C       -0.00465871       1.77757030       0.00794375
H       -0.66225468       2.44313916      -0.64384735
H        0.64322798       2.43503045       0.67728295
C       -1.78241447       0.00034974      -0.00472694
H       -2.45427497      -0.65498947       0.64260836
H       -2.43311707       0.67328779      -0.65473579
C       -0.91132561       0.90220522       0.91563759
C       -0.01476271      -0.02253852       1.78660255
H       -0.67934791      -0.69751639       2.42135241
H        0.63392994       0.61504881       2.47327442
C        0.01484550      -1.77751727      -0.01636693
H        0.67870853      -2.42144646      -0.68295456
H       -0.62264859      -2.45592969       0.64226336
C        1.78714474       0.01002794       0.00389507
H        2.44202412       0.67113390       0.66197326
H        2.45385902      -0.65136977      -0.64189061
C        0.91606151      -0.90478549       0.90901405
