169
Properties=species:S:1:pos:R:3 pbc="F F F"
C        0.00000000       0.00000000       0.00000000
C        0.88124023       0.88124023      -0.88124023
C        1.82128163       1.72590211      -0.29877992
C        2.62820086       2.53032664      -1.11094294
C        2.49042100       2.50735858      -2.50481962
C        1.54219116       1.65293188      -3.07386401
C        0.74144510       0.83729620      -2.26533486
N        3.33537703       3.35643685      -3.25037554
C        3.31432845       3.56974684      -4.61856508
O        2.56523457       3.03328091      -5.43147197
C        4.42626268       4.49361453      -5.10706118
N        5.52987832       3.64436056      -5.52179793
C        5.55779891       3.14978011      -6.81150604
N        6.43884663       2.32530978      -7.27319087
C        7.36249409       1.92232417      -6.36532792
S        8.57035187       0.80755017      -6.80655933
C        9.22336103       0.80791135      -5.23162154
C        8.56094133       1.66225065      -4.36446353
C        9.01413930       1.77363402      -2.97498452
C       10.38528895       1.87023328      -2.68052717
C       10.83208730       1.94475838      -1.35754780
C        9.90787281       1.94106388      -0.31777474
C        8.54536096       1.84714769      -0.58787588
C        8.10337030       1.74822644      -1.91189934
C        7.45696200       2.30550475      -5.03924089
C        6.46090786       3.25496202      -4.56093538
O        6.40211375       3.66967088      -3.40409305
H        1.93366929       1.76806707       0.78127519
H        3.35411083       3.18375529      -0.63285116
H        1.40515451       1.58117770      -4.14829967
H        0.01656891       0.17491513      -2.73044659
H        4.06127016       3.83485592      -2.72157616
H        4.73451286       5.19161321      -4.32193347
H        4.04865660       5.07580983      -5.95497117
H        4.75117847       3.51905149      -7.46516760
H       10.07033863       0.16821167      -5.02205668
H       11.12528948       1.88811999      -3.47835197
H       11.89814274       2.00654795      -1.15407109
H        7.81814249       1.84500144       0.21925690
H        7.03631194       1.64857767      -2.09497372
C       10.36337290       2.03072704       1.04533941
C       10.74485423       2.10581993       2.18694751
Br      11.36167728       2.22723879       4.03283125
C       -0.88124023      -0.88124023      -0.88124023
C       -0.29795909      -1.74139502      -1.80660955
C       -1.10996745      -2.54873854      -2.61076444
C       -2.50572185      -2.49032943      -2.50654793
C       -3.07551459      -1.62177788      -1.57169459
C       -2.26617789      -0.82138421      -0.75651405
N       -3.25180146      -3.32952318      -3.36086478
C       -4.62895790      -3.37358626      -3.50009621
O       -5.44910900      -2.70038863      -2.88048982
C       -5.10880611      -4.46067971      -4.45745257
N       -5.41664782      -5.62902935      -3.65035964
C       -6.67348193      -5.75493323      -3.09066990
N       -7.04127247      -6.70268226      -2.29339254
C       -6.06482270      -7.59424714      -1.99107634
S       -6.37876355      -8.88203470      -0.92366312
C       -4.77400534      -9.44524509      -1.04364350
C       -3.99205706      -8.69128289      -1.90431557
C       -2.58895729      -9.05975275      -2.11404780
C       -2.22832800     -10.40532265      -2.30239875
C       -0.88981346     -10.77306816      -2.47151186
C        0.09827158      -9.79378171      -2.47120129
C       -0.23776686      -8.45532378      -2.28729389
C       -1.57570762      -8.09371869      -2.09406976
C       -4.75903818      -7.59422550      -2.44844396
C       -4.38772301      -6.52428044      -3.36480182
O       -3.26053767      -6.37922470      -3.83611531
H        0.78248903      -1.79097784      -1.91197236
H       -0.63139084      -3.21131821      -3.32800823
H       -4.15001145      -1.54886851      -1.43575192
H       -2.73125884      -0.15958416      -0.03108764
H       -2.71290597      -3.99850241      -3.90629385
H       -4.34864978      -4.68735308      -5.21205670
H       -6.00663197      -4.10073167      -4.97207397
H       -7.38841907      -4.96765114      -3.37932735
H       -4.48463616     -10.31182200      -0.46414882
H       -2.98570248     -11.18669399      -2.31936498
H       -0.63407074     -11.82135918      -2.60333186
H        0.52868529      -7.68534604      -2.28722629
H       -1.80904952      -7.04528957      -1.92552424
C        1.47641755     -10.16716488      -2.65801320
C        2.63061480     -10.47987329      -2.81446817
Br       4.49685414     -10.98549634      -3.06744262
C       -0.88124023       0.88124023       0.88124023
C       -0.80298650       2.26661675       0.77636041
C       -1.61435247       3.07018652       1.58493144
C       -2.49471475       2.49652204       2.51136242
C       -2.56169936       1.10368294       2.60360475
C       -1.76054060       0.29595132       1.78758423
N       -3.26974482       3.37720859       3.29523601
C       -4.12883137       3.04455300       4.32925600
O       -4.38625504       1.91238300       4.73134941
C       -4.87338062       4.24301388       4.91054389
N       -6.15178883       4.31996718       4.22428080
C       -7.22382069       3.59194922       4.70331514
N       -8.38322397       3.51571700       4.13840630
C       -8.48520979       4.19570025       2.96923615
S       -9.93729290       4.16497064       2.08219783
C       -9.27093050       5.13969441       0.85226901
C       -7.96254343       5.52085659       1.10425549
C       -7.25863967       6.36745563       0.13666253
C       -7.90521504       7.47322493      -0.44239057
C       -7.25532507       8.26957579      -1.39050738
C       -5.94507154       7.97581615      -1.75417627
C       -5.28636041       6.88583521      -1.19181109
C       -5.94818116       6.07676317      -0.26144825
C       -7.50387062       4.94859084       2.34924618
C       -6.21744782       5.03141749       3.02793996
O       -5.24377600       5.64255969       2.58954199
H       -0.11634159       2.73067755       0.07344202
H       -1.53400954       4.15016381       1.48654392
H       -3.23846360       0.60546317       3.29070511
H       -1.83557559      -0.78475076       1.87110580
H       -3.21266074       4.36149844       3.04354306
H       -4.29784687       5.16578257       4.78443011
H       -5.02157326       4.07482741       5.98303693
H       -7.03299901       3.05559089       5.64680766
H       -9.88398641       5.38217896      -0.00555839
H       -8.92540872       7.72958157      -0.16322884
H       -7.78002225       9.11226410      -1.83352456
H       -4.26272924       6.65151458      -1.47035679
H       -5.42136716       5.21582515       0.14267102
C       -5.26805988       8.80126039      -2.72055974
C       -4.70106261       9.49256995      -3.52990590
Br      -3.78427599      10.61035902      -4.83855018
C        0.88124023      -0.88124023       0.88124023
C        0.59234437      -1.01804730       2.23557200
C        1.40195014      -1.82863795       3.03888235
C        2.51082528      -2.49287749       2.49889644
C        2.78662922      -2.34552439       1.13683344
C        1.97171342      -1.54528844       0.32707429
N        3.28121511      -3.28207521       3.37889910
C        4.46222044      -3.94673155       3.09368838
O        5.03680337      -3.98492229       2.00826180
C        4.98931983      -4.77751740       4.26010117
N        4.49101922      -6.12981714       4.07520045
C        5.20799221      -7.01623947       3.29485338
N        4.83088903      -8.21428972       2.99216852
C        3.61247175      -8.56012567       3.47754877
S        2.95582203     -10.09260841       3.13603094
C        1.52948247      -9.73466334       3.99874812
C        1.53948709      -8.47395157       4.57421686
C        0.38133110      -8.02755921       5.35386752
C       -0.23283819      -8.89506122       6.27382637
C       -1.35773268      -8.49195581       7.00017035
C       -1.86713166      -7.20940122       6.82444186
C       -1.27308593      -6.33437635       5.91909412
C       -0.16228617      -6.74958897       5.17619328
C        2.76714457      -7.78407807       4.25048501
C        3.23671477      -6.44797794       4.59211256
O        2.58858407      -5.63606011       5.25123350
H       -0.25533398      -0.49989569       2.67589945
H        1.15762354      -1.91840226       4.09469148
H        3.62166045      -2.85103213       0.66193930
H        2.20077388      -1.45208403      -0.73092728
H        2.90185836      -3.40015195       4.31569192
H        4.66597441      -4.36204738       5.22003776
H        6.08452380      -4.76342714       4.23148667
H        6.17396942      -6.63244232       2.92898581
H        0.74569891     -10.47954370       4.03536437
H        0.15638369      -9.89818832       6.43718943
H       -1.82285740      -9.18464197       7.69697721
H       -1.66497838      -5.33098533       5.77788009
H        0.26665779      -6.05708923       4.45611631
C       -3.01754401      -6.78618895       7.58011560
C       -3.98101435      -6.43174867       8.21299235
Br      -5.53886441      -5.85864871       9.23630053
