190
Properties=species:S:1:pos:R:3 pbc="F F F"
C        1.79154298       1.79154298      -1.79154298
C        1.20229409       2.70958547      -2.66024517
C        2.00897965       3.51162924      -3.47258147
C        3.40432242       3.38228674      -3.42290779
C        3.98860274       2.46595572      -2.53738339
C        3.17944937       1.67041896      -1.72139581
C        4.21739216       4.23288505      -4.32510727
O        3.83866347       5.30418718      -4.76349843
O        5.40169951       3.56874395      -4.61268787
C        6.31808485       4.05788266      -5.56722668
C        7.65536937       3.71543566      -5.35182668
C        8.62490136       4.11115720      -6.27348924
C        8.24601893       4.84453453      -7.40353658
C        6.91138325       5.16751686      -7.61775551
C        5.93586151       4.76245171      -6.70754555
O        6.48627755       5.87739507      -8.70847641
C        7.42904479       6.38533226      -9.59186207
C        6.79009038       7.24496985     -10.64868878
C        8.75490769       6.14570664      -9.50020469
C        9.72232687       6.69055131     -10.46501424
C       10.02382688       5.98745184     -11.63895583
C       10.93779807       6.51038610     -12.55687795
C       11.54856866       7.73720242     -12.30165780
Br      12.78607287       8.44466428     -13.54336372
C       11.25665561       8.44585298     -11.13746237
C       10.34482161       7.92157701     -10.21842145
C        9.24594099       5.28798552      -8.38370815
O       10.42275063       4.96646389      -8.26533655
H        0.12123433       2.80782586      -2.71503017
H        1.54668304       4.22692193      -4.14986865
H        5.06854283       2.36433115      -2.46804854
H        3.63882514       0.95997125      -1.03853830
H        7.94290022       3.14274550      -4.47444773
H        9.66922218       3.85086208      -6.11226453
H        4.89633931       5.00477604      -6.90394298
H        7.46433677       8.00837351     -11.04538331
H        5.92704592       7.77626528     -10.23245186
H        6.43745072       6.62205062     -11.47656611
H        9.55882355       5.02465499     -11.83962511
H       11.16991762       5.95195287     -13.45974268
H       11.73498874       9.39983086     -10.93291451
H       10.12794683       8.47574185      -9.30779483
C       -1.79154298      -1.79154298      -1.79154298
C       -3.10369192      -1.40531501      -2.06311779
C       -3.91315123      -2.21582063      -2.86421849
C       -3.41047813      -3.41884500      -3.38019383
C       -2.08620196      -3.79297549      -3.11276439
C       -1.27720201      -2.97688666      -2.31717548
C       -4.31584471      -4.26012820      -4.19941158
O       -5.26809250      -3.82006957      -4.81818701
O       -3.92678135      -5.58613974      -4.07021024
C       -4.68834396      -6.64286218      -4.61198806
C       -3.96802486      -7.78548876      -4.96911809
C       -4.64528388      -8.90005264      -5.46421126
C       -6.03801219      -8.86082983      -5.59524802
C       -6.74802727      -7.72557111      -5.22305724
C       -6.07815097      -6.61363394      -4.71407386
O       -8.11036267      -7.63657375      -5.32521261
C       -8.81198467      -8.67911624      -5.91513822
C      -10.27299793      -8.34995591      -6.06079517
C       -8.24534309      -9.83651937      -6.31895657
C       -9.02529995     -10.92505479      -6.92753769
C       -9.62883028     -11.89965516      -6.12174911
C      -10.37474686     -12.92849400      -6.70182126
C      -10.51864838     -12.98140930      -8.08737121
Br     -11.52737635     -14.37410844      -8.87261608
C       -9.92307130     -12.01763334      -8.89926633
C       -9.17499616     -10.99051091      -8.31931300
C       -6.77719030     -10.01309345      -6.12735091
O       -6.19504017     -11.05564231      -6.40386859
H       -3.50615141      -0.48097140      -1.65696755
H       -4.93680565      -1.91237421      -3.07429376
H       -1.67020161      -4.71096730      -3.51975361
H       -0.25177640      -3.27400398      -2.11155431
H       -2.88717629      -7.81124570      -4.86167147
H       -4.09183906      -9.79335963      -5.74715009
H       -6.65226020      -5.74502818      -4.40776994
H      -10.75014276      -8.87673826      -6.89121258
H      -10.40139685      -7.27936240      -6.25500380
H      -10.80644750      -8.59301080      -5.13660914
H       -9.51207131     -11.87048177      -5.04055057
H      -10.83109206     -13.68336890      -6.06715221
H      -10.02880723     -12.05900111      -9.97992578
H       -8.70576416     -10.24644106      -8.95927828
C       -1.79154298       1.79154298       1.79154298
C       -3.14366732       1.48568489       1.94277251
C       -3.95243605       2.29676085       2.74399346
C       -3.40766090       3.42088797       3.38096810
C       -2.04461142       3.71352765       3.23380278
C       -1.23709209       2.89655145       2.43762060
C       -4.31106640       4.26843294       4.19588515
O       -5.33453291       3.85847472       4.71334146
O       -3.82310668       5.56776049       4.19226416
C       -4.54807663       6.63810853       4.75700904
C       -3.77917615       7.69698241       5.24647315
C       -4.41283601       8.82185270       5.77485907
C       -5.81082750       8.87686436       5.80639818
C       -6.56785482       7.82559542       5.30320537
C       -5.94033111       6.70484137       4.76068629
O       -7.93690017       7.83082771       5.30442115
C       -8.60677604       8.87931679       5.92014629
C      -10.09375393       8.64992218       5.94007289
C       -7.99320291       9.96104765       6.44656847
C       -8.73922505      11.05980576       7.07886161
C       -9.21291165      12.12957185       6.30775104
C       -9.92706990      13.16838384       6.90960838
C      -10.16911719      13.13624688       8.28206481
Br     -11.13486197      14.54237137       9.09686752
C       -9.70304943      12.07741769       9.05950384
C       -8.98663427      11.04014541       8.45804040
C       -6.50623131      10.04127409       6.37012926
O       -5.87571970      11.01635928       6.76247209
H       -3.57767493       0.62383114       1.44258429
H       -5.00729137       2.05614808       2.86003416
H       -1.59763186       4.56800236       3.73528830
H       -0.18124015       3.13042970       2.32566484
H       -2.69413977       7.65002748       5.21592621
H       -3.82163681       9.65014243       6.16056954
H       -6.54865860       5.90426472       4.35213500
H      -10.59362134       9.15211865       6.77235360
H      -10.30960306       7.58093826       6.04522173
H      -10.53934275       8.99485917       5.00186553
H       -9.01875394      12.16637542       5.23797429
H      -10.28212139      13.99687288       6.30261891
H       -9.88536080      12.05196749      10.13040583
H       -8.61840971      10.22108770       9.07198609
C        1.79154298      -1.79154298       1.79154298
C        1.28198953      -2.98271127       2.30742392
C        2.08651395      -3.78630310       3.12037331
C        3.39561965      -3.38769437       3.42620294
C        3.90401770      -2.19513289       2.89279125
C        3.09936356      -1.39735021       2.07455037
C        4.20069331      -4.25753988       4.31715129
O        4.00923212      -5.45365843       4.44345854
O        5.11890308      -3.46842843       4.99579983
C        5.92741934      -3.98650409       6.02927076
C        7.16227731      -3.35666276       6.20369163
C        8.00566015      -3.76789681       7.23599083
C        7.60377121      -4.80485449       8.08546435
C        6.36707554      -5.41536127       7.91421880
C        5.51361765      -4.99904970       6.89319142
O        5.92301433      -6.42938379       8.71975092
C        6.77455167      -6.94363229       9.68805517
C        6.16831332      -8.13283571      10.38259997
C        7.99936960      -6.44312373       9.95832569
C        8.86772125      -7.00708325      11.00308792
C        8.76771524      -6.55643909      12.32608022
C        9.58880991      -7.09856142      13.31769079
C       10.50832278      -8.09258357      12.98652255
Br      11.62015276      -8.82578265      14.32816547
C       10.61693480      -8.54900475      11.67403142
C        9.79777278      -8.00493600      10.68211128
C        8.47631725      -5.26963339       9.17168402
O        9.54479276      -4.71291695       9.39684136
H        0.26419980      -3.29350137       2.08638919
H        1.68637792      -4.71510631       3.52198938
H        4.92269141      -1.87790013       3.10033098
H        3.49890895      -0.47240517       1.66602058
H        7.46720551      -2.54967746       5.54321048
H        8.97035351      -3.28448105       7.37751423
H        4.54262019      -5.47271403       6.78972410
H        6.91599941      -8.82668417      10.77541001
H        5.54937302      -8.70430041       9.68208962
H        5.52897665      -7.80067096      11.20641984
H        8.05967360      -5.77371943      12.58971062
H        9.50795741      -6.73506921      14.33858655
H       11.33633882      -9.31988518      11.41151011
H        9.89361897      -8.35965040       9.65821413
C       -0.00445707       0.01189536      -1.78238275
H       -0.66409135       0.67374010      -2.43557963
H        0.65740317      -0.63156657      -2.45157240
C       -0.90989263      -0.90692880      -0.91072765
C        0.90977584       0.90977584      -0.90977584
C       -0.00465871       1.77757030       0.00794375
H       -0.66225468       2.44313916      -0.64384735
H        0.64322798       2.43503045       0.67728295
C       -1.78241447       0.00034974      -0.00472694
H       -2.45427497      -0.65498947       0.64260836
H       -2.43311707       0.67328779      -0.65473579
C       -0.91132561       0.90220522       0.91563759
C       -0.01476271      -0.02253852       1.78660255
H       -0.67934791      -0.69751639       2.42135241
H        0.63392994       0.61504881       2.47327442
C        0.01484550      -1.77751727      -0.01636693
H        0.67870853      -2.42144646      -0.68295456
H       -0.62264859      -2.45592969       0.64226336
C        1.78714474       0.01002794       0.00389507
H        2.44202412       0.67113390       0.66197326
H        2.45385902      -0.65136977      -0.64189061
C        0.91606151      -0.90478549       0.90901405
