110
Properties=species:S:1:pos:R:3 pbc="F F F"
N        5.01750561       1.59373840       2.06393925
N        3.81078479       2.31209075       2.20187494
C        3.03147888       2.63598403       1.09806226
S        1.68650879       3.59794945       1.32644666
N        3.55265522       2.12920990      -0.07644600
C        3.04855014       2.29984560      -1.38636449
C        1.80139397       1.80139397      -1.80139397
C        1.38084832       1.95242709      -3.13103167
C        2.20946032       2.55842814      -4.08218615
C        1.76495107       2.70841135      -5.50695052
C        3.46202319       3.03193424      -3.68185146
C        3.88248460       2.88700871      -2.35483677
Br       5.61618473       3.53989466      -1.91070841
H        5.56330910       1.69660646       2.92268748
H        4.77850393       0.59885846       2.00757794
H        3.51476438       2.68844782       3.10278216
H        4.56738978       2.11667722       0.01544878
H        0.41358268       1.55774501      -3.43873660
H        2.58510427       2.46691574      -6.19094767
H        1.43202086       3.73407670      -5.69232276
H        0.93877172       2.02617432      -5.73862350
H        4.11588781       3.50550105      -4.41206701
N        2.04018257      -1.54511988      -5.04236745
N        1.26431566      -0.39335697      -4.79195929
C        0.04126890      -0.47323533      -4.13743422
S       -0.87767978       0.91283932      -3.99317110
N       -0.25567879      -1.76240641      -3.74022592
C       -1.42772613      -2.21519817      -3.09183592
C       -1.80139397      -1.80139397      -1.80139397
C       -2.94628088      -2.33052327      -1.18750293
C       -3.71342167      -3.31311202      -1.82354092
C       -4.93045521      -3.88822052      -1.16163722
C       -3.33172080      -3.74848362      -3.09560447
C       -2.19262855      -3.21897106      -3.71273047
Br      -1.73765287      -3.89405628      -5.43507866
H        2.74039506      -1.32354139      -5.75408175
H        2.57021362      -1.75030360      -4.18969446
H        1.53470258       0.52065833      -5.15579095
H        0.15314185      -2.39846883      -4.42329124
H       -3.22114814      -2.00304413      -0.18587201
H       -4.96623200      -4.97332080      -1.30341488
H       -5.83584311      -3.44035945      -1.58221777
H       -4.91918147      -3.70317878      -0.08120929
H       -3.92018806      -4.51214114      -3.60112668
N       -4.20940768       2.83343814      -2.49554105
N       -2.89960561       3.32021356      -2.29881857
C       -2.30439229       3.30835590      -1.04334755
S       -0.80446875       4.01904768      -0.86550486
N       -3.11486117       2.72964258      -0.08619264
C       -2.85009154       2.58909822       1.29557047
C       -1.80139397       1.80139397       1.80139397
C       -1.62445129       1.65470606       3.18514974
C       -2.51208696       2.24815491       4.08983274
C       -2.33030990       2.08066342       5.56933963
C       -3.57281888       3.01038790       3.59260210
C       -3.74920599       3.16255527       2.21256882
Br      -5.23883682       4.19757867       1.63037231
H       -4.55719629       3.17473449      -3.39470271
H       -4.14771677       1.81522946      -2.59316179
H       -2.38038282       3.77199672      -3.05194950
H       -4.08196905       2.92638340      -0.33973424
H       -0.80968490       1.03820819       3.56217120
H       -3.29405336       1.89444953       6.05446478
H       -1.87947131       2.98060475       5.99834426
H       -1.68357414       1.22484073       5.79515467
H       -4.27010587       3.47744758       4.28590243
N       -2.56071506      -3.83327263       3.27474719
N       -2.24610052      -2.51146576       3.65563536
C       -0.95851001      -2.00686314       3.52104751
S       -0.63480981      -0.47995462       4.11286675
N       -0.09844838      -2.91765800       2.93910150
C        1.28448757      -2.75912086       2.69115179
C        1.80139397      -1.80139397       1.80139397
C        3.18018805      -1.73082336       1.55329568
C        4.06437304      -2.63873210       2.14696947
C        5.53735462      -2.57134545       1.87161287
C        3.55347165      -3.61068818       3.01164904
C        2.17879962      -3.68060858       3.26492189
Br       1.57442127      -5.05592369       4.43644284
H       -3.45468520      -4.09492594       3.69698734
H       -2.72456954      -3.83115596       2.26319802
H       -2.93077105      -1.91299789       4.11820319
H       -0.39994155      -3.85002395       3.21853582
H        3.56557967      -0.98591886       0.85856575
H        5.94482156      -3.57648636       1.72165975
H        6.05614204      -2.09392895       2.70834933
H        5.74470788      -1.99874510       0.96011656
H        4.23080887      -4.32263786       3.48000914
C       -0.00445707       0.01189536      -1.78238275
H       -0.66409135       0.67374010      -2.43557963
H        0.65740317      -0.63156657      -2.45157240
C       -0.90989263      -0.90692880      -0.91072765
C        0.90977584       0.90977584      -0.90977584
C       -0.00465871       1.77757030       0.00794375
H       -0.66225468       2.44313916      -0.64384735
H        0.64322798       2.43503045       0.67728295
C       -1.78241447       0.00034974      -0.00472694
H       -2.45427497      -0.65498947       0.64260836
H       -2.43311707       0.67328779      -0.65473579
C       -0.91132561       0.90220522       0.91563759
C       -0.01476271      -0.02253852       1.78660255
H       -0.67934791      -0.69751639       2.42135241
H        0.63392994       0.61504881       2.47327442
C        0.01484550      -1.77751727      -0.01636693
H        0.67870853      -2.42144646      -0.68295456
H       -0.62264859      -2.45592969       0.64226336
C        1.78714474       0.01002794       0.00389507
H        2.44202412       0.67113390       0.66197326
H        2.45385902      -0.65136977      -0.64189061
C        0.91606151      -0.90478549       0.90901405
