98
Properties=species:S:1:pos:R:3 pbc="F F F"
F        1.60613948       2.96780669      -5.23131506
C        2.03210117       2.82332158      -3.97033152
C        1.36314260       1.95617699      -3.12015147
C        1.80047309       1.80047309      -1.80047309
C        2.92175967       2.52130338      -1.33689049
C        3.58757721       3.39659598      -2.22120795
Br       5.19993126       4.32294951      -1.80486023
C        3.13467579       3.54324261      -3.53665445
N        3.37223163       2.36911246      -0.00063552
C        3.69095979       1.17853016       0.61995768
C        4.08667707       1.44191501       1.91279974
C        4.00875557       2.83949988       2.09804737
C        3.56974124       3.38521826       0.91186563
H        0.49310635       1.42476649      -3.49547563
H        3.64012211       4.19835047      -4.24052120
H        3.63832689       0.24007742       0.08500975
H        4.40145475       0.70472180       2.64024856
H        4.24239350       3.39162515       2.99971210
H        3.35572742       4.41370239       0.65515225
F       -5.16918328      -3.12027108      -1.51580687
C       -3.97106172      -2.82152976      -2.03316279
C       -3.05408518      -2.11829622      -1.26708967
C       -1.80047309      -1.80047309      -1.80047309
C       -1.46872880      -2.19778702      -3.11343771
C       -2.41774619      -2.91431330      -3.87332165
Br      -2.07700232      -3.65514350      -5.59559517
C       -3.66814327      -3.22058388      -3.32584571
N       -0.19987359      -1.88020471      -3.66190131
C        1.02591944      -2.17471453      -3.10073718
C        2.02017844      -1.70541022      -3.93056056
C        1.38924450      -1.10017757      -5.03927501
C        0.02983964      -1.22082596      -4.85210755
H       -3.33868245      -1.80951929      -0.26514674
H       -4.40897239      -3.78499024      -3.88503115
H        1.09549846      -2.71970276      -2.16919026
H        3.08460205      -1.79511514      -3.75541489
H        1.87125709      -0.62252383      -5.88303981
H       -0.79132337      -0.86421434      -5.45873984
F       -1.49855440       3.15138951       5.15531733
C       -1.97784033       2.92131531       3.92659862
C       -1.30754665       2.04532363       3.08660077
C       -1.80047309       1.80047309       1.80047309
C       -2.97884692       2.44054948       1.36055713
C       -3.64475327       3.32658387       2.23404399
Br      -5.32123513       4.15000887       1.85649700
C       -3.13603572       3.56294564       3.51559149
N       -3.48587593       2.19770306       0.05840061
C       -3.77281245       0.96248708      -0.48576727
C       -4.24453733       1.13908786      -1.76783284
C       -4.24800846       2.52739126      -2.02519163
C       -3.78007384       3.15446158      -0.89144155
H       -0.39388823       1.57730725       3.44215299
H       -3.63946985       4.22791109       4.21161285
H       -3.64565160       0.05659785       0.09114511
H       -4.55616762       0.35079117      -2.44103080
H       -4.55377270       3.02013335      -2.93959950
H       -3.60707337       4.20407969      -0.69687550
F        5.28170283      -2.82148571       1.70207269
C        4.02537954      -2.66346771       2.13690702
C        3.11480631      -1.97169878       1.35296597
C        1.80047309      -1.80047309       1.80047309
C        1.40152553      -2.33360977       3.04481824
C        2.34554748      -3.03552657       3.82430708
Br       1.93480969      -3.94558943       5.44734188
C        3.65680923      -3.19432530       3.36343832
N        0.07088497      -2.16511517       3.50597947
C       -1.07715597      -2.50618767       2.82050056
C       -2.17022264      -2.18944504       3.59656994
C       -1.68274406      -1.63350112       4.79945102
C       -0.30749520      -1.63018773       4.72040133
H        3.44999625      -1.55683402       0.40651821
H        4.39685171      -3.74438251       3.93775957
H       -1.02620911      -2.97322506       1.84637861
H       -3.20593826      -2.34742740       3.32443885
H       -2.26885615      -1.26929350       5.63386921
H        0.42976516      -1.26321211       5.42130029
C       -0.00445707       0.01189536      -1.78238275
H       -0.66409135       0.67374010      -2.43557963
H        0.65740317      -0.63156657      -2.45157240
C       -0.90989263      -0.90692880      -0.91072765
C        0.90977584       0.90977584      -0.90977584
C       -0.00465871       1.77757030       0.00794375
H       -0.66225468       2.44313916      -0.64384735
H        0.64322798       2.43503045       0.67728295
C       -1.78241447       0.00034974      -0.00472694
H       -2.45427497      -0.65498947       0.64260836
H       -2.43311707       0.67328779      -0.65473579
C       -0.91132561       0.90220522       0.91563759
C       -0.01476271      -0.02253852       1.78660255
H       -0.67934791      -0.69751639       2.42135241
H        0.63392994       0.61504881       2.47327442
C        0.01484550      -1.77751727      -0.01636693
H        0.67870853      -2.42144646      -0.68295456
H       -0.62264859      -2.45592969       0.64226336
C        1.78714474       0.01002794       0.00389507
H        2.44202412       0.67113390       0.66197326
H        2.45385902      -0.65136977      -0.64189061
C        0.91606151      -0.90478549       0.90901405
