106
Properties=species:S:1:pos:R:3 pbc="F F F"
F        1.60613948       2.96780669      -5.23131506
C        2.03210117       2.82332158      -3.97033152
C        1.36314260       1.95617699      -3.12015147
C        1.80047309       1.80047309      -1.80047309
C        2.92175967       2.52130338      -1.33689049
C        3.58757721       3.39659598      -2.22120795
C        3.13467579       3.54324261      -3.53665445
N        3.37223163       2.36911246      -0.00063552
C        3.69095979       1.17853016       0.61995768
C        4.08667707       1.44191501       1.91279974
C        4.00875557       2.83949988       2.09804737
C        3.56974124       3.38521826       0.91186563
H        0.49310635       1.42476649      -3.49547563
H        3.64012211       4.19835047      -4.24052120
H        3.63832689       0.24007742       0.08500975
H        4.40145475       0.70472180       2.64024856
H        4.24239350       3.39162515       2.99971210
H        3.35572742       4.41370239       0.65515225
C        4.80600585       4.09662565      -1.90658103
C        5.82643985       4.68290050      -1.64308098
Br       7.47639530       5.63085734      -1.21702369
F       -5.21156732      -3.01891760      -1.57477631
C       -3.99177715      -2.76781621      -2.06616091
C       -3.07668776      -2.06866934      -1.29411396
C       -1.80047309      -1.80047309      -1.80047309
C       -1.44420051      -2.24356461      -3.09218841
C       -2.39185012      -2.95494155      -3.85858946
C       -3.66491294      -3.21128521      -3.33837470
N       -0.15234803      -1.97645160      -3.61317998
C        1.04882218      -2.28851311      -3.00984132
C        2.07827562      -1.87019809      -3.82386987
C        1.49526427      -1.27938246      -4.96608990
C        0.12838150      -1.35741217      -4.81406320
H       -3.37982141      -1.72410166      -0.30942542
H       -4.40574882      -3.77070995      -3.90253502
H        1.07746473      -2.80873986      -2.06211942
H        3.13454972      -1.98406730      -3.61641040
H        2.01348442      -0.83908014      -5.80871083
H       -0.66547561      -0.99566605      -5.45313589
C       -2.11466353      -3.55806850      -5.13648049
C       -1.88251977      -4.06318732      -6.20671423
Br      -1.50716294      -4.87992172      -7.93719167
F       -1.73111194       2.77979069       5.29435860
C       -2.09570608       2.72262469       4.00742350
C       -1.42711508       1.86523428       3.14712170
C       -1.80047309       1.80047309       1.80047309
C       -2.85721822       2.60296891       1.31976641
C       -3.52409125       3.46658132       2.21470856
C       -3.13543859       3.52169100       3.55744326
N       -3.24261523       2.54325780      -0.04389343
C       -3.58775552       1.40455059      -0.74277385
C       -3.89974583       1.75414020      -2.03809369
C       -3.74106282       3.15315201      -2.14400675
C       -3.33904663       3.61355916      -0.90951192
H       -0.60657647       1.26958713       3.53718488
H       -3.64390558       4.16630282       4.26878539
H       -3.61163229       0.43864528      -0.25688301
H       -4.21217277       1.07280469      -2.81904947
H       -3.89769232       3.76212435      -3.02551011
H       -3.08708280       4.61471932      -0.58752457
C       -4.68675005       4.24596449       1.87649799
C       -5.66047680       4.89869789       1.59324663
Br      -7.23491059       5.95411259       1.13525315
F        5.30578001      -2.73976649       1.75971473
C        4.03659758      -2.62038951       2.16876718
C        3.12822845      -1.93144217       1.37980044
C        1.80047309      -1.80047309       1.80047309
C        1.38589650      -2.37122819       3.02282885
C        2.32803300      -3.06945672       3.80789141
C        3.65273316      -3.18776513       3.37407457
N        0.04159625      -2.24367501       3.45670835
C       -1.08239532      -2.59469141       2.73723617
C       -2.19982179      -2.32088651       3.49472762
C       -1.75275481      -1.78208175       4.72088115
C       -0.37651438      -1.74576758       4.67384067
H        3.47507202      -1.48725018       0.45102628
H        4.39212580      -3.73407910       3.95278888
H       -0.99856649      -3.03773825       1.75422280
H       -3.22516136      -2.49594894       3.19514041
H       -2.36591647      -1.45070007       5.54952296
H        0.33596244      -1.37852941       5.39978570
C        2.00595909      -3.79229193       5.01096150
C        1.73622219      -4.39766642       6.01853271
Br       1.30008044      -5.37650577       7.64769013
C       -0.00445707       0.01189536      -1.78238275
H       -0.66409135       0.67374010      -2.43557963
H        0.65740317      -0.63156657      -2.45157240
C       -0.90989263      -0.90692880      -0.91072765
C        0.90977584       0.90977584      -0.90977584
C       -0.00465871       1.77757030       0.00794375
H       -0.66225468       2.44313916      -0.64384735
H        0.64322798       2.43503045       0.67728295
C       -1.78241447       0.00034974      -0.00472694
H       -2.45427497      -0.65498947       0.64260836
H       -2.43311707       0.67328779      -0.65473579
C       -0.91132561       0.90220522       0.91563759
C       -0.01476271      -0.02253852       1.78660255
H       -0.67934791      -0.69751639       2.42135241
H        0.63392994       0.61504881       2.47327442
C        0.01484550      -1.77751727      -0.01636693
H        0.67870853      -2.42144646      -0.68295456
H       -0.62264859      -2.45592969       0.64226336
C        1.78714474       0.01002794       0.00389507
H        2.44202412       0.67113390       0.66197326
H        2.45385902      -0.65136977      -0.64189061
C        0.91606151      -0.90478549       0.90901405
