101
Properties=species:S:1:pos:R:3 pbc="F F F"
C        0.00000000       0.00000000       0.00000000
C        0.88067743       0.88067743      -0.88067743
C        0.58787636       2.22574395      -1.03129927
C        1.39949020       3.02588711      -1.84435741
C        2.52115711       2.50950856      -2.53018439
C        2.79624110       1.13769146      -2.35761904
C        3.94476276       0.45836621      -3.05357129
C        4.88041939       1.33537330      -3.87992688
C        4.49994355       2.78025906      -4.05409878
C        5.32745211       3.56857724      -4.88102054
C        5.06016907       4.91772633      -5.07075694
Br       6.18112156       5.95900684      -6.17785644
C        3.97081389       5.49930637      -4.44210258
C        3.14706288       4.71965333      -3.62142087
C        3.38434456       3.34570527      -3.40214053
C        1.97648635       0.33423379      -1.53709412
H       -0.26692974       2.66912179      -0.52689287
H        1.11995295       4.07186734      -1.92493670
H        3.52905416      -0.31885317      -3.71036652
H        4.54581275      -0.06803978      -2.30137500
H        4.98632545       0.87990690      -4.87324041
H        5.87901858       1.30227717      -3.42168940
H        6.18691693       3.11424587      -5.37105822
H        3.74857601       6.55452765      -4.57713513
H        2.30940677       5.23051677      -3.15562431
H        2.20247468      -0.72352762      -1.42201077
C       -0.88067743      -0.88067743      -0.88067743
C       -0.30965660      -1.86298229      -1.67228070
C       -1.12517681      -2.66436310      -2.48019481
C       -2.52837756      -2.50860028      -2.52387222
C       -3.08244949      -1.50205559      -1.70704651
C       -4.55965925      -1.21545972      -1.68158130
C       -5.46507642      -2.13221018      -2.49843296
C       -4.80055100      -3.15549221      -3.37825818
C       -5.63902997      -3.94962008      -4.18839984
C       -5.10551655      -4.93519959      -5.00793618
Br      -6.24332339      -5.99191634      -6.08274510
C       -3.73590716      -5.14430985      -5.03200583
C       -2.90084862      -4.35742975      -4.22985871
C       -3.40306771      -3.34617135      -3.38295129
C       -2.25769633      -0.69647243      -0.89364549
H        0.76612436      -2.01913654      -1.67607273
H       -0.62101861      -3.41640235      -3.07933603
H       -4.70900082      -0.18314908      -2.02841761
H       -4.90124352      -1.23888493      -0.63901951
H       -6.11361550      -1.50342953      -3.12242773
H       -6.13220950      -2.66482518      -1.80595047
H       -6.71575255      -3.79020861      -4.16625986
H       -3.30158602      -5.91332343      -5.66532935
H       -1.83703777      -4.56767812      -4.29083196
H       -2.70454008       0.07881454      -0.27523229
C       -0.88067743       0.88067743       0.88067743
C       -1.85037122       1.68652294       0.30802542
C       -2.65182289       2.49430700       1.12360483
C       -2.50864322       2.52368980       2.52851705
C       -1.51478598       1.69255516       3.08421045
C       -1.24210164       1.65091407       4.56368455
C       -2.15966227       2.46787798       5.46817931
C       -3.16865751       3.36317309       4.80247078
C       -3.96304866       4.17290721       5.64109402
C       -4.93610770       5.00637018       5.10617445
Br      -5.99340828       6.08043491       6.24414165
C       -5.13232033       5.04491416       3.73498835
C       -4.34513473       4.24320957       2.89979277
C       -3.34636040       3.38242709       3.40340286
C       -0.70909723       0.87933037       2.25938666
H       -1.99653394       1.70161052      -0.76905954
H       -3.39365125       3.10496602       0.61813972
H       -0.20808229       1.98681148       4.72567373
H       -1.27823046       0.60552868       4.89538882
H       -1.53121455       3.08006839       6.12818982
H       -2.70474067       1.77426723       6.12397725
H       -3.81380576       4.13943450       6.71898076
H       -5.89145403       5.68926988       3.29951488
H       -4.54497393       4.31586390       1.83471002
H        0.05633014       0.24971103       2.70757694
C        0.88067743      -0.88067743       0.88067743
C        1.70004459      -0.30669702       1.83817798
C        2.50770442      -1.12233128       2.63969902
C        2.52351456      -2.52864846       2.50868704
C        1.67879526      -3.08565977       1.52709657
C        1.62178963      -4.56703978       1.26787086
C        2.43887577      -5.47064666       2.18619714
C        3.34884793      -4.80406309       3.18139037
C        4.15819344      -5.64281847       3.97603797
C        5.00487518      -5.10678213       4.93699502
Br       6.07823207      -6.24489122       5.99486154
C        5.05715975      -3.73432417       5.12073891
C        4.25587680      -2.89900402       4.33325626
C        3.38192468      -3.40371713       3.34654854
C        0.86573865      -2.26077087       0.72130475
H        1.72585639       0.77145146       1.97467999
H        3.12929828      -0.61580368       3.37165503
H        1.94710551      -4.74104113       0.23242087
H        0.57389908      -4.88916479       1.31608409
H        3.03968491      -6.14151987       1.55826798
H        1.74439113      -6.11549084       2.74310319
H        4.11396370      -6.72163320       3.83662413
H        5.71198759      -3.29792897       5.87032223
H        4.33962006      -1.83289535       4.52303244
H        0.22547907      -2.71006723      -0.03458847
