129
Properties=species:S:1:pos:R:3 pbc="F F F"
C        0.00000000       0.00000000       0.00000000
C        0.88161776       0.88161776      -0.88161776
C        1.30723773       2.12378374      -0.41151567
C        2.11165574       2.93716713      -1.21677239
C        2.48209239       2.50610624      -2.49674370
C        2.04342768       1.25841326      -2.96168317
C        1.24869770       0.44317294      -2.15199773
C        3.30640340       3.34903616      -3.40717127
O        3.18080630       3.21248179      -4.62370443
C        4.27423786       4.35090787      -2.78277593
O        5.06158179       5.01958904      -3.77081052
C        6.07445090       4.26573105      -4.29298234
O        6.37755337       3.14732738      -3.89974856
C        6.71349561       5.01747977      -5.44092265
C        8.06128492       4.46871993      -5.85073500
C        8.13142485       3.61505008      -6.96623562
C        9.34752985       3.06234132      -7.37103373
C       10.51241257       3.34999258      -6.66677661
C       10.46155856       4.18874495      -5.55456627
C        9.24412303       4.74262794      -5.14424640
Br       9.27198687       5.86015876      -3.60713803
H        1.01123296       2.47027411       0.57597638
H        2.41026643       3.90719927      -0.83071945
H        2.32273101       0.91585111      -3.95710736
H        0.91985290      -0.52382398      -2.52420682
H        4.91651531       3.85641290      -2.04486283
H        3.69622541       5.12893464      -2.27594266
H        6.81451814       6.07636900      -5.17726291
H        6.01914117       4.97602913      -6.28925539
H        7.23045815       3.36396720      -7.52387463
H        9.38271349       2.40070028      -8.23283389
H       11.45859987       2.91538004      -6.97810472
H       11.37810677       4.39920007      -5.00913007
C       -0.88161776      -0.88161776      -0.88161776
C       -1.28764114      -0.42102915      -2.13386686
C       -2.09875080      -1.22303729      -2.94380716
C       -2.50804329      -2.48414542      -2.49275361
C       -2.09923180      -2.93459218      -1.22970013
C       -1.28075699      -2.13643404      -0.42667734
C       -3.40085063      -3.36132037      -3.30043983
O       -4.13623830      -4.15987487      -2.72087935
C       -3.36168899      -3.22578720      -4.82044547
O       -4.19751580      -4.19028500      -5.46418054
C       -3.68113795      -5.45485393      -5.49717241
O       -2.55869400      -5.75367420      -5.11226112
C       -4.72679011      -6.40540023      -6.03970769
C       -4.16685656      -7.74134679      -6.47253649
C       -4.27985796      -8.83603964      -5.59681296
C       -3.75781663     -10.08464835      -5.93843992
C       -3.11151740     -10.25965813      -7.15800623
C       -2.98399258      -9.18466885      -8.03620835
C       -3.50370911      -7.93102106      -7.69626721
Br      -3.26622160      -6.52273170      -8.95033037
H       -0.98482801       0.56315768      -2.48386036
H       -2.41480794      -0.82851470      -3.90486251
H       -2.41543291      -3.91210375      -0.86815281
H       -0.96788983      -2.50088653       0.54854062
H       -2.33117946      -3.29995498      -5.18665661
H       -3.75977976      -2.24508920      -5.09623375
H       -5.24877994      -5.93737526      -6.88199484
H       -5.47851264      -6.55171205      -5.25420099
H       -4.76848739      -8.71907724      -4.63073535
H       -3.84998945     -10.91878221      -5.24747600
H       -2.69985893     -11.23017393      -7.42205177
H       -2.47020702      -9.33361078      -8.98261911
C       -0.88161776       0.88161776       0.88161776
C       -0.99250953       2.24424185       0.60578577
C       -1.79560879       3.05717792       1.41280855
C       -2.48104358       2.50285112       2.50104763
C       -2.35743848       1.13313454       2.77295108
C       -1.56311546       0.32107933       1.95967359
C       -3.31950794       3.33086083       3.41224206
O       -3.46442634       2.97212738       4.58043880
C       -3.96292904       4.59559033       2.84940229
O       -4.81012884       5.23507206       3.80678045
C       -6.01772250       4.62332334       3.99211845
O       -6.41713447       3.66925979       3.33823505
C       -6.73996075       5.28681078       5.14512650
C       -8.21445532       4.95879268       5.20749184
C       -8.64706833       3.96353899       6.10210323
C       -9.99405688       3.60617562       6.18067240
C      -10.93019714       4.23393228       5.36505234
C      -10.51933938       5.21809685       4.46743355
C       -9.16976585       5.57724335       4.38398817
Br      -8.70362591       6.91681924       3.11883852
H       -0.45152658       2.68330744      -0.22930333
H       -1.84581077       4.11765928       1.18471510
H       -2.88323084       0.69320310       3.61925553
H       -1.48044393      -0.74022849       2.18002030
H       -4.51739096       4.36904490       1.93135518
H       -3.17430467       5.31519303       2.61160501
H       -6.60913665       6.37324097       5.08577243
H       -6.24619061       4.96710046       6.07113462
H       -7.93035335       3.44824289       6.73970375
H      -10.31028106       2.83141971       6.87454689
H      -11.97825180       3.95206608       5.42176676
H      -11.26028022       5.69525796       3.83089873
C        0.88161776      -0.88161776       0.88161776
C        1.40608159      -0.36868386       2.06777170
C        2.21771532      -1.17081380       2.87706614
C        2.50854467      -2.48528118       2.49111647
C        1.98120999      -2.98864384       1.29367028
C        1.16248456      -2.18935630       0.49202752
C        3.39630302      -3.36821524       3.29809256
O        4.03335046      -4.25427315       2.72936890
C        3.47517976      -3.12903019       4.80371170
O        4.28866480      -4.10573711       5.45757944
C        3.69268584      -5.32506789       5.61541056
O        2.52812734      -5.56781274       5.32868923
C        4.70867635      -6.30966702       6.15355467
C        4.09320437      -7.57021550       6.71731997
C        4.06988088      -8.72621645       5.91661323
C        3.49142309      -9.90864890       6.38083291
C        2.92383638      -9.95511934       7.65022603
C        2.93156789      -8.81752226       8.45577963
C        3.50816921      -7.62979594       7.99303223
Br       3.45562617      -6.12753012       9.15612736
H        1.19549479       0.65582220       2.36585810
H        2.62739012      -0.73663367       3.78416136
H        2.20473922      -4.00823651       0.98271375
H        0.75697862      -2.59478481      -0.43152768
H        2.47087984      -3.10462522       5.24228599
H        3.95658609      -2.16312108       4.98139554
H        5.31970172      -5.82500876       6.92343957
H        5.39079291      -6.56153630       5.33209648
H        4.49482326      -8.70930189       4.91417483
H        3.47799496     -10.79151391       5.74673879
H        2.46824803     -10.87387613       8.00996048
H        2.47804701      -8.86577538       9.44261451
