150
Properties=species:S:1:pos:R:3 pbc="F F F"
C        1.79152178       1.79152178      -1.79152178
C        2.21714176       3.03368777      -1.32141969
C        3.02155977       3.84707115      -2.12667641
C        3.39199641       3.41601026      -3.40664772
C        2.95333170       2.16831728      -3.87158719
C        2.15860173       1.35307697      -3.06190176
C        4.21630742       4.25894019      -4.31707530
O        4.09071032       4.12238581      -5.53360846
C        5.18414188       5.26081190      -3.69267995
O        5.97148582       5.92949307      -4.68071454
C        6.98435493       5.17563507      -5.20288636
O        7.28745739       4.05723140      -4.80965259
C        7.62339964       5.92738380      -6.35082667
C        8.97118894       5.37862395      -6.76063902
C        9.04132887       4.52495411      -7.87613965
C       10.25743387       3.97224535      -8.28093775
C       11.42231659       4.25989660      -7.57668064
C       11.37146259       5.09864897      -6.46447030
C       10.15402706       5.65253197      -6.05415043
Br      10.18189089       6.77006278      -4.51704206
H        1.92113698       3.38017814      -0.33392764
H        3.32017046       4.81710330      -1.74062347
H        3.23263503       1.82575513      -4.86701138
H        1.82975693       0.38608005      -3.43411084
H        5.82641934       4.76631693      -2.95476685
H        4.60612943       6.03883866      -3.18584668
H        7.72442216       6.98627302      -6.08716694
H        6.92904520       5.88593315      -7.19915941
H        8.14036217       4.27387123      -8.43377865
H       10.29261751       3.31060431      -9.14273792
H       12.36850390       3.82528407      -7.88800875
H       12.28801079       5.30910409      -5.91903409
C       -1.79152178      -1.79152178      -1.79152178
C       -2.23206999      -1.31439845      -3.02578078
C       -3.04333747      -2.11643363      -3.83553623
C       -3.41811288      -3.39436428      -3.40217724
C       -2.97476008      -3.86150871      -2.15696739
C       -2.15619448      -3.06303396      -1.35435201
C       -4.30949892      -4.27324423      -4.20957975
O       -5.01685084      -5.09801373      -3.63184002
C       -4.30400849      -4.10663599      -5.72698924
O       -5.13335618      -5.07491482      -6.37342243
C       -4.59262470      -6.32779674      -6.44245493
O       -3.45683623      -6.61132128      -6.08618387
C       -5.62993020      -7.28842173      -6.98325817
C       -5.05237790      -8.60378636      -7.45428766
C       -5.12565637      -9.71781082      -6.59895543
C       -4.58586670     -10.94846467      -6.97628561
C       -3.96117079     -11.08590597      -8.21181707
C       -3.87303206      -9.99123188      -9.07031792
C       -4.41063277      -8.75546002      -8.69461666
Br      -4.22688062      -7.31788170      -9.92423342
H       -1.95614670      -0.31746140      -3.36163465
H       -3.38670828      -1.70932852      -4.78186043
H       -3.26396386      -4.85227639      -1.80916130
H       -1.81632403      -3.44042878      -0.39319500
H       -3.27989466      -4.15248221      -6.11512625
H       -4.72712357      -3.12893911      -5.97475210
H       -6.17819840      -6.81440746      -7.80525626
H       -6.36243277      -7.46565611      -6.18604888
H       -5.59674979      -9.63012426      -5.62113800
H       -4.64728682     -11.79792494      -6.30074798
H       -3.53568891     -12.04237578      -8.50373202
H       -3.37575411     -10.11076520     -10.02962967
C       -1.79152178       1.79152178       1.79152178
C       -1.94537427       3.14309467       1.48378028
C       -2.74863218       3.95612757       2.29054758
C       -3.39100876       3.41326806       3.41037758
C       -3.22436544       2.05483062       3.71404012
C       -2.43006180       1.24228741       2.90123124
C       -4.22732802       4.24320351       4.32179137
O       -4.33265969       3.91180626       5.50223864
C       -4.91814266       5.47568984       3.74380123
O       -5.75703099       6.11821905       4.70644338
C       -6.94290361       5.48073723       4.93923552
O       -7.33368206       4.49980566       4.32085366
C       -7.65252039       6.15562841       6.09346131
C       -9.11575838       5.79158078       6.20311276
C       -9.49882949       4.80948357       7.13410957
C      -10.83345737       4.41981519       7.25734442
C      -11.80648591       5.00156898       6.45083895
C      -11.44494006       5.97194610       5.51769569
C      -10.10790132       6.36333420       5.38947393
Br      -9.70993292       7.68060675       4.07845606
H       -1.43780445       3.57373668       0.62370163
H       -2.83263845       5.00858193       2.03667685
H       -3.71644386       1.62400964       4.58494804
H       -2.31378533       0.18963732       3.14652517
H       -5.48984759       5.21082896       2.84682657
H       -4.15514859       6.20880026       3.46686593
H       -7.55197101       7.24311811       6.00277300
H       -7.12685101       5.87325428       7.01403246
H       -8.75261953       4.32977817       7.76561435
H      -11.11119474       3.65576205       7.97900294
H      -12.84493608       4.69445317       6.54240746
H      -12.21432602       6.41294784       4.88887511
C        1.79152178      -1.79152178       1.79152178
C        2.33141792      -1.27268501       2.96814629
C        3.14311630      -2.07483691       3.77735412
C        3.41850007      -3.39534486       3.40080947
C        2.87571680      -3.90468716       2.21283221
C        2.05697147      -3.10524342       1.41136557
C        4.30556428      -4.27901044       4.20774818
O        4.92934553      -5.17596061       3.64139845
C        4.40035034      -4.02693894       5.71034445
O        5.21090031      -5.00507698       6.36571613
C        4.60537656      -6.21743533       6.54006447
O        3.43609869      -6.45211897       6.26612372
C        5.61728692      -7.20636181       7.07796138
C        4.99560618      -8.45608251       7.65876322
C        4.95450923      -9.61902168       6.86889172
C        4.36963744     -10.79187181       7.34910773
C        3.81327066     -10.82166587       8.62395729
C        3.83865463      -9.67694278       9.41898445
C        4.42173145      -8.49876895       8.94020905
Br       4.39341179      -6.98562083      10.08996312
H        2.13284331      -0.24364248       3.25875697
H        3.56497145      -1.63622463       4.67670115
H        3.08715970      -4.92905140       1.90919045
H        1.63939472      -3.51529350       0.49525960
H        3.40035989      -3.98939421       6.15774901
H        4.89208165      -3.06389832       5.87483481
H        6.23967968      -6.72035636       7.83782608
H        6.28956502      -7.47187478       6.25269796
H        5.37041412      -9.61506217       5.86253576
H        4.34242875     -11.68028006       6.72325093
H        3.35269027     -11.73292997       8.99617648
H        3.39374746      -9.71211847      10.41028305
C       -0.00445707       0.01189536      -1.78238275
H       -0.66409135       0.67374010      -2.43557963
H        0.65740317      -0.63156657      -2.45157240
C       -0.90989263      -0.90692880      -0.91072765
C        0.90977584       0.90977584      -0.90977584
C       -0.00465871       1.77757030       0.00794375
H       -0.66225468       2.44313916      -0.64384735
H        0.64322798       2.43503045       0.67728295
C       -1.78241447       0.00034974      -0.00472694
H       -2.45427497      -0.65498947       0.64260836
H       -2.43311707       0.67328779      -0.65473579
C       -0.91132561       0.90220522       0.91563759
C       -0.01476271      -0.02253852       1.78660255
H       -0.67934791      -0.69751639       2.42135241
H        0.63392994       0.61504881       2.47327442
C        0.01484550      -1.77751727      -0.01636693
H        0.67870853      -2.42144646      -0.68295456
H       -0.62264859      -2.45592969       0.64226336
C        1.78714474       0.01002794       0.00389507
H        2.44202412       0.67113390       0.66197326
H        2.45385902      -0.65136977      -0.64189061
C        0.91606151      -0.90478549       0.90901405
