125
Properties=species:S:1:pos:R:3 pbc="F F F"
C        0.00000000       0.00000000       0.00000000
C        0.88159279       0.88159279      -0.88159279
C        0.41454205       2.12405922      -1.30444511
C        1.22090257       2.92540949      -2.11571224
C        2.49023276       2.48137756      -2.51274987
C        2.95633370       1.23582800      -2.07257831
C        2.14866806       0.43630636      -1.25721718
C        3.30147956       3.36256836      -3.39832730
O        3.06947925       4.57165489      -3.41837988
C        4.39087084       2.72346240      -4.25405202
O        4.72794602       3.53154950      -5.38288931
C        3.78704208       3.52432071      -6.36032762
O        2.78273965       2.82866913      -6.37122539
C        4.14532455       4.46688474      -7.45224518
C        5.28995964       5.27667852      -7.39885405
C        5.58534283       6.14514876      -8.45176739
C        4.74184286       6.21298496      -9.55987197
C        3.60136905       5.41122600      -9.61155677
C        3.29792893       4.54032445      -8.56629175
H       -0.57170367       2.47734983      -1.01446830
H        0.85085234       3.89428754      -2.44844888
H        3.94324798       0.86904113      -2.33918704
H        2.51574349      -0.53043125      -0.92062027
H        4.10362494       1.72023220      -4.58806907
H        5.29286275       2.63454270      -3.63966214
H        5.95690909       5.24490189      -6.54061869
H        6.47309662       6.77229951      -8.40532751
H        4.97781626       6.89298876     -10.37386721
H        2.40509835       3.91981211      -8.61222948
C        2.73018326       5.48512712     -10.75574817
C        2.00056516       5.54701931     -11.71400846
Br       0.82083441       5.64709374     -13.26343431
C       -0.88159279      -0.88159279      -0.88159279
C       -2.12008863      -0.41093353      -1.31202423
C       -2.92669570      -1.22207150      -2.11325711
C       -2.50033215      -2.50745894      -2.47656909
C       -1.24810767      -2.96749363      -2.04913873
C       -0.44023673      -2.15224004      -1.24971483
C       -3.40782853      -3.34261259      -3.31193411
O       -4.26589083      -2.79159687      -4.00202631
C       -3.23767566      -4.85819457      -3.27251504
O       -4.42616767      -5.54098669      -3.67523047
C       -5.41649893      -5.50667836      -2.74851312
O       -5.31657786      -5.04378360      -1.62227269
C       -6.65747759      -6.13616395      -3.27081293
C       -6.75350823      -6.63212177      -4.57986221
C       -7.94116488      -7.21758574      -5.02350836
C       -9.03794622      -7.30920455      -4.16754902
C       -8.94443850      -6.81239871      -2.86731460
C       -7.76325546      -6.22697072      -2.41431895
H       -2.46954374       0.57879794      -1.02936865
H       -3.89651002      -0.85287216      -2.44420657
H       -0.87355867      -3.94735359      -2.33056389
H        0.52992565      -2.51620299      -0.91965517
H       -2.92988606      -5.20297416      -2.27906598
H       -2.45268692      -5.12758984      -3.98679083
H       -5.91267660      -6.56379146      -5.26596162
H       -8.01155700      -7.59935001      -6.03981663
H       -9.95903393      -7.76427816      -4.52136014
H       -7.69841095      -5.83913833      -1.39959065
C      -10.07945559      -6.90556897      -1.98603399
C      -11.03003239      -6.98359907      -1.24796147
Br     -12.56703469      -7.10976713      -0.05456064
C       -0.88159279       0.88159279       0.88159279
C       -0.39635918       2.10289781       1.34378939
C       -1.20294802       2.90413906       2.15493722
C       -2.49095875       2.48086975       2.51253168
C       -2.97490986       1.25685531       2.03297484
C       -2.16687963       0.45750451       1.21780747
C       -3.30234482       3.36033166       3.39969875
O       -3.04341512       4.56291697       3.45318192
C       -4.42563534       2.72746086       4.21528907
O       -4.77043092       3.51727719       5.35467672
C       -3.85295603       3.46589066       6.35284373
O       -2.86527351       2.74696884       6.37039181
C       -4.21502699       4.39144684       7.45798064
C       -5.33938008       5.22868596       7.39742617
C       -5.63936309       6.07961043       8.46328546
C       -4.82057532       6.10254367       9.59158080
C       -3.70015868       5.27347086       9.65052228
C       -3.39235650       4.41975464       8.59243400
H        0.60415837       2.43963047       1.08464236
H       -0.81879161       3.85631113       2.51848602
H       -3.97585853       0.90718099       2.26843663
H       -2.54792418      -0.49250968       0.85051801
H       -4.16915544       1.71047012       4.53230064
H       -5.31486297       2.67358043       3.57862419
H       -5.98670992       5.23199399       6.52372577
H       -6.51129009       6.72816217       8.41127138
H       -5.05990503       6.76915585      10.41561136
H       -2.51519260       3.77773097       8.64421636
C       -2.85440224       5.30099961      10.81565670
C       -2.14608122       5.32405493      11.79145677
Br      -1.00078605       5.36133345      13.36924296
C        0.88159279      -0.88159279       0.88159279
C        2.24171878      -0.60365924       0.99766836
C        3.04649883      -1.41553254       1.79999293
C        2.49439373      -2.51115399       2.47881246
C        1.12337330      -2.77558242       2.36578430
C        0.31841732      -1.95918203       1.56459224
C        3.39944592      -3.36075379       3.30217551
O        4.45751528      -2.88601975       3.71597899
C        2.97596148      -4.79671901       3.59570478
O        4.09100769      -5.62717733       3.92419982
C        4.86748305      -5.94594091       2.85826646
O        4.62230101      -5.66568958       1.69464356
C        6.06598810      -6.71560386       3.28286251
C        6.33852519      -6.99669267       4.63027435
C        7.47709543      -7.72621443       4.97894913
C        8.34964684      -8.17615358       3.98889937
C        8.08145107      -7.89328939       2.64941135
C        6.94725443      -7.16664841       2.29064229
H        2.68668339       0.23523653       0.46866760
H        4.11044197      -1.19828282       1.88486397
H        0.65556776      -3.60012683       2.89578157
H       -0.74481557      -2.17115814       1.47958994
H        2.42272163      -5.23275399       2.75645059
H        2.31626702      -4.78129019       4.46951037
H        5.67526319      -6.64863969       5.41852679
H        7.68520954      -7.94044002       6.02507408
H        9.23444690      -8.74130122       4.26892411
H        6.74581964      -6.94741179       1.24390850
C        8.98559810      -8.35657887       1.62888158
C        9.74282123      -8.74458381       0.77418789
Br      10.96718699      -9.37195497      -0.60777951
