141
Properties=species:S:1:pos:R:3 pbc="F F F"
C        0.00000000       0.00000000       0.00000000
C        0.88133452       0.88133452      -0.88133452
C        1.01997156       0.58935987      -2.23465423
C        1.83105714       1.39648989      -3.03883401
C        2.50860551       2.50461628      -2.50304263
C        2.36008873       2.77473554      -1.13260446
C        1.54776285       1.97005401      -0.32591417
C        3.38003898       3.32387851      -3.37155970
C        3.53069012       4.64102528      -3.21315367
C        4.42750716       5.35481348      -4.12453194
O        4.68131176       6.53839771      -3.90078038
C        4.99582340       4.64204745      -5.30559108
H        6.08140296       4.78578020      -5.24423870
C        4.82969038       3.15821448      -5.31712491
O        5.40650880       2.46253973      -6.15292897
O        4.03887656       2.58841501      -4.37431910
C        4.43389752       5.22306913      -6.57911689
O        3.26992076       5.00576573      -6.91654696
C        5.29980527       6.05939630      -7.45652870
C        5.01971809       6.08153753      -8.83015321
C        5.80737461       6.84061544      -9.69921464
C        6.87077884       7.58484870      -9.19330614
C        7.14673823       7.58461520      -7.82643778
C        6.35825664       6.82602987      -6.95469390
H        0.50676684      -0.26158599      -2.67541803
H        1.92412831       1.14824176      -4.09517669
H        2.88463391       3.60489858      -0.66445943
H        1.44872512       2.19823692       0.73238462
H        3.03125501       5.22883718      -2.45363215
H        4.18861678       5.50315626      -9.23115788
H        5.58146986       6.84409816     -10.76267109
H        7.96671949       8.17810886      -7.42860039
H        6.57592114       6.87562311      -5.89095043
C        7.68632094       8.36593142     -10.08683894
C        8.36933744       9.02008820     -10.83517267
Br       9.47371737      10.07780439     -12.04516500
C       -0.88133452      -0.88133452      -0.88133452
C       -1.29901944      -2.12556239      -0.41940382
C       -2.10339945      -2.93236367      -1.23061792
C       -2.50256210      -2.50540526      -2.50829706
C       -2.06170977      -1.24925364      -2.95646531
C       -1.25838651      -0.43904384      -2.14630068
C       -3.33079346      -3.39081189      -3.35387184
C       -4.25535663      -2.92985031      -4.19966213
C       -5.01333224      -3.89550768      -4.99801265
O       -5.76535804      -3.47697999      -5.87815182
C       -4.87196335      -5.35401331      -4.71748528
H       -4.61611718      -5.81708203      -5.67822266
C       -3.74362663      -5.74171401      -3.81968912
O       -3.43610595      -6.92324432      -3.66262723
O       -3.05150129      -4.76032662      -3.18978276
C       -6.16551650      -5.90215244      -4.16841460
O       -6.52871210      -5.64254506      -3.02097630
C       -7.01368052      -6.78650104      -5.01554871
C       -7.82374772      -7.73393724      -4.37372387
C       -8.63032905      -8.59560015      -5.12127549
C       -8.63334186      -8.50424434      -6.51134748
C       -7.84554442      -7.55324434      -7.15900246
C       -7.03823829      -6.68885978      -6.41188233
H       -1.00532549      -2.48050998       0.56523659
H       -2.41789456      -3.90214219      -0.84751001
H       -2.32119597      -0.88473159      -3.94806436
H       -0.92871222       0.52908918      -2.51495437
H       -4.49161018      -1.88271642      -4.33939775
H       -7.82688933      -7.80880042      -3.28724116
H       -9.24939401      -9.32872155      -4.61012356
H       -7.85958406      -7.47048425      -8.24336043
H       -6.46403016      -5.93469343      -6.94377108
C       -9.46135579      -9.39290136      -7.28483415
C      -10.15481745     -10.13715162      -7.93262924
Br     -11.27608631     -11.34054134      -8.98005910
C       -0.88133452       0.88133452       0.88133452
C       -0.36465614       1.42699437       2.05233513
C       -1.17565657       2.23106921       2.85965526
C       -2.50805912       2.50236923       2.50583607
C       -3.01010927       1.93373852       1.32358093
C       -2.20048103       1.13037300       0.51287700
C       -3.34940396       3.33380280       3.39227042
C       -4.29576396       4.15608803       2.93301709
C       -5.07887790       4.92733009       3.90064458
O       -6.04288040       5.57887967       3.49872978
C       -4.68352529       4.92069147       5.33924518
H       -5.58542096       4.63295329       5.89304762
C       -3.67486854       3.89383588       5.73632535
O       -3.40934973       3.69148037       6.92114740
O       -3.06551303       3.17467289       4.76142474
C       -4.19875678       6.28931181       5.74801495
O       -3.10488008       6.71313845       5.37421493
C       -5.04328188       7.14037003       6.63207836
C       -4.39975288       8.06606159       7.46559436
C       -5.14365840       8.88120101       8.32234528
C       -6.53269434       8.77662545       8.33961388
C       -7.18401341       7.87237850       7.50139930
C       -6.44067715       7.05627511       6.64202815
H        0.66294458       1.23377795       2.34976551
H       -0.74914607       2.64704047       3.77136022
H       -4.04265539       2.09169194       1.01964458
H       -2.61131739       0.70048127      -0.39722125
H       -4.52878893       4.29930525       1.88563016
H       -3.31425829       8.15353291       7.45513972
H       -4.63066518       9.59082811       8.96674582
H       -8.26930486       7.80152929       7.50259459
H       -6.97930610       6.38811230       5.97507627
C       -7.30210751       9.61330550       9.22367829
C       -7.94649103      10.31402504       9.96408224
Br      -8.98840469      11.44702927      11.16125279
C        0.88133452      -0.88133452       0.88133452
C        2.24377452      -0.98245770       0.61775342
C        3.04804758      -1.79360807       1.42472539
C        2.50313597      -2.50863907       2.50448938
C        1.12385270      -2.39752249       2.74605353
C        0.31698621      -1.58524616       1.94149866
C        3.37283692      -3.37892885       3.32371142
C        3.18815702      -3.56363391       4.63307814
C        4.10367564      -4.45587671       5.34730023
O        3.85910350      -4.74206476       6.51932158
C        5.31344586      -4.98059944       4.64941664
H        5.27404169      -6.07033164       4.76704855
C        5.35474940      -4.77988395       3.17039642
O        6.21925589      -5.32132526       2.48139635
O        4.40701464      -3.99763982       2.59695621
C        6.56010386      -4.40358025       5.27239943
O        6.87528995      -3.22752930       5.08941420
C        7.43818000      -5.26854135       6.10900892
C        8.80408555      -4.95798432       6.16933896
C        9.67375186      -5.74313324       6.93031959
C        9.17590192      -6.83470171       7.63833005
C        7.81615675      -7.14148803       7.60014644
C        6.94377911      -6.35558668       6.83961462
H        2.69169097      -0.43980129      -0.21089338
H        4.11161911      -1.85693373       1.19899392
H        0.64930340      -2.95165203       3.55303649
H       -0.74822402      -1.51553612       2.14726531
H        2.40413190      -3.09530520       5.21428724
H        9.19871496      -4.10481999       5.61939597
H       10.73133173      -5.49332684       6.96358054
H        7.42409261      -7.98381681       8.16551932
H        5.88451842      -6.59839444       6.85958181
C       10.07017467      -7.64767722       8.42123941
C       10.81912809      -8.32854422       9.07692600
Br      12.03012244      -9.42944856      10.13711576
