118
Properties=species:S:1:pos:R:3 pbc="F F F"
O        3.08138772      -0.16507244      -2.41418605
C        3.08575301       1.04901612      -2.20010348
C        1.83047629       1.83047629      -1.83047629
H        1.24710942       1.99343386      -2.73759975
C        2.08442078       3.14800995      -1.10114804
C        3.34218048       3.88940195      -1.55847754
H        3.52045445       4.72940139      -0.87433446
C        4.54532519       2.96855121      -1.49386309
C        4.35678443       1.84165995      -2.49014502
H        5.19274079       1.13941679      -2.37123540
C        4.37687973       2.37931272      -3.92316710
C        3.61066496       3.68149369      -4.16439798
H        4.20497995       4.33721008      -4.81044914
C        3.18169846       4.49052389      -2.94680347
O        2.65471355       5.59966599      -3.06597644
H        2.18902165       2.96783998      -0.02230208
H        1.20447398       3.79503064      -1.21211627
H        5.46465821       3.52254484      -1.72148179
H        4.65548549       2.56560965      -0.47934400
H        4.07597680       1.59040893      -4.62374398
H        5.42962948       2.58656564      -4.16326783
C        2.41841644       3.41646670      -4.92722440
C        1.41990830       3.19450659      -5.56609153
Br      -0.19459491       2.83561587      -6.59908565
O       -0.35303042      -3.68000676      -1.29746416
C       -1.08563196      -3.12805916      -2.12118149
C       -1.83047629      -1.83047629      -1.83047629
H       -2.70003179      -2.06351677      -1.21459447
C       -2.23608875      -1.03078173      -3.06670830
C       -2.63113215      -1.88836825      -4.27055958
H       -2.74897738      -1.23226106      -5.14295185
C       -1.53593304      -2.89006984      -4.58173660
C       -1.40954483      -3.85751612      -3.42152845
H       -0.55834199      -4.52136360      -3.62368739
C       -2.67144010      -4.71440540      -3.29351405
C       -4.00314760      -3.98230575      -3.47110328
H       -4.67322094      -4.59320885      -4.08620938
C       -3.97048725      -2.58084511      -4.06769347
O       -5.00989615      -1.97329005      -4.33716979
H       -1.40669293      -0.38526330      -3.38720747
H       -3.05754848      -0.35238280      -2.80168961
H       -1.76744333      -3.43680374      -5.50443777
H       -0.58547373      -2.36762496      -4.74734043
H       -2.64079332      -5.28959701      -2.35973939
H       -2.61909533      -5.46721447      -4.09315315
C       -4.67978579      -3.87806264      -2.20425911
C       -5.24647027      -3.79075904      -1.14327712
Br      -6.16275114      -3.64959649       0.57224102
O       -1.89410663       0.00669958       3.42969513
C       -2.47354217       0.95870469       2.90262575
C       -1.83047629       1.83047629       1.83047629
H       -1.14028795       2.52099457       2.31686052
C       -2.81474227       2.58204345       0.93679305
C       -4.08085482       3.05631030       1.65289485
H       -4.78470014       3.43788444       0.90160572
C       -4.74330989       1.89532278       2.36910681
C       -3.82031565       1.40233073       3.46594302
H       -4.27514277       0.51059360       3.91765662
C       -3.65860207       2.46669335       4.55406412
C       -3.48343183       3.90640343       4.06672137
H       -4.08909225       4.57546009       4.68808683
C       -3.80346787       4.20758447       2.60797348
O       -3.78682082       5.36158526       2.17194991
H       -3.13469698       1.93987710       0.10458963
H       -2.30092275       3.43541925       0.47527888
H       -5.70416744       2.20714203       2.79737537
H       -4.95530093       1.08728902       1.65784918
H       -2.86630556       2.17085631       5.25296785
H       -4.58359593       2.44773953       5.14812749
C       -2.12912700       4.34062329       4.29235725
C       -0.99489671       4.70428242       4.48132730
Br       0.83905775       5.29228848       4.78687588
O        0.00614232      -3.42900945       1.89534956
C        0.95854911      -2.90207552       2.47424797
C        1.83047629      -1.83047629       1.83047629
H        2.52056722      -2.31736182       1.14021399
C        2.58272528      -0.93670879       2.81414471
C        3.05719191      -1.65252307       4.08034499
H        3.43929439      -0.90111708       4.78377882
C        1.89618512      -2.36807278       4.74348159
C        1.40245971      -3.46506489       3.82106480
H        0.51072388      -3.91628943       4.27637967
C        2.46636841      -4.55363112       3.65936002
C        3.90619161      -4.06687491       3.48349011
H        4.57524255      -4.68826340       4.08913322
C        4.20801845      -2.60812041       3.80288696
O        5.36217134      -2.17252205       3.78566260
H        1.94097735      -0.10415609       3.13403027
H        3.43608191      -0.47569115       2.29984782
H        2.20819782      -2.79610569       5.70438134
H        1.08848668      -1.65644480       4.95550764
H        2.16998992      -5.25271495       2.86742485
H        2.44753486      -5.14735170       4.58457639
C        4.33983763      -4.29316015       2.12910976
C        4.70301617      -4.48267403       0.99481622
Br       5.29024515      -4.78910196      -0.83924050
C       -0.00445707       0.01189536      -1.78238275
H       -0.66409135       0.67374010      -2.43557963
H        0.65740317      -0.63156657      -2.45157240
C       -0.90989263      -0.90692880      -0.91072765
C        0.90977584       0.90977584      -0.90977584
C       -0.00465871       1.77757030       0.00794375
H       -0.66225468       2.44313916      -0.64384735
H        0.64322798       2.43503045       0.67728295
C       -1.78241447       0.00034974      -0.00472694
H       -2.45427497      -0.65498947       0.64260836
H       -2.43311707       0.67328779      -0.65473579
C       -0.91132561       0.90220522       0.91563759
C       -0.01476271      -0.02253852       1.78660255
H       -0.67934791      -0.69751639       2.42135241
H        0.63392994       0.61504881       2.47327442
C        0.01484550      -1.77751727      -0.01636693
H        0.67870853      -2.42144646      -0.68295456
H       -0.62264859      -2.45592969       0.64226336
C        1.78714474       0.01002794       0.00389507
H        2.44202412       0.67113390       0.66197326
H        2.45385902      -0.65136977      -0.64189061
C        0.91606151      -0.90478549       0.90901405
