178
Properties=species:S:1:pos:R:3 pbc="F F F"
O        5.08585372       1.84227632      -3.13559812
C        3.93722768       2.21386013      -2.93567715
C        3.03305579       1.41446634      -2.08252312
C        1.78092245       1.78092245      -1.78092245
C        1.19163978       3.05527175      -2.29224143
O        0.06706365       3.44886701      -2.00872793
C        2.04084090       3.85614765      -3.18926812
H        1.61188332       4.77094714      -3.58050628
C        3.37662937       3.44964312      -3.52355899
C        4.16413507       4.22084324      -4.54272957
C        4.53374134       5.65217462      -4.12743614
C        5.35969719       5.77686027      -2.84457411
C        6.73491100       5.11242595      -2.93842791
C        7.52548877       5.31599553      -1.64265571
C        8.90199605       4.63780078      -1.64794324
C        8.87648430       3.14608415      -1.86835746
C        9.43482596       2.56644555      -2.94109461
C        9.43008643       1.10342000      -3.15345073
O       10.00100939       0.63745355      -4.13351676
C        8.72989226       0.27258318      -2.13714232
C        8.18047808       0.84469316      -1.06223417
C        8.23834957       2.29868439      -0.82916906
O        7.77926003       2.76709877       0.20554042
Br       8.66483794      -1.57432410      -2.39597554
H        3.46041384       0.48739263      -1.70983797
H        3.57131938       4.27621618      -5.46502739
H        5.07490080       3.68019870      -4.82265578
H        3.61675514       6.24246119      -4.00498499
H        5.08519190       6.12024263      -4.95315879
H        4.80164644       5.35936723      -1.99817479
H        5.49492022       6.84417604      -2.62928293
H        7.29513529       5.53304551      -3.78218130
H        6.61275049       4.04324960      -3.13069290
H        6.93277362       4.95699025      -0.79376153
H        7.67390014       6.39058485      -1.47939764
H        9.40119588       4.84426919      -0.69321810
H        9.52070921       5.11971340      -2.41593054
H        9.92839744       3.14132392      -3.71655309
H        7.67188544       0.27036318      -0.29724479
O       -3.78214262      -1.55049336      -4.73109218
C       -3.23313850      -2.07961701      -3.77400945
C       -2.37502427      -1.28246174      -2.87255925
C       -1.78092245      -1.78092245      -1.78092245
C       -1.94726324      -3.21095903      -1.38093068
O       -1.45651461      -3.69807868      -0.37006530
C       -2.75173659      -4.05360389      -2.28091619
H       -2.85885533      -5.09662534      -2.00785607
C       -3.37206638      -3.51801113      -3.45975396
C       -4.07354372      -4.43258495      -4.42157921
C       -5.33833925      -5.10569886      -3.86931399
C       -6.43772595      -4.15528514      -3.38812048
C       -7.01122930      -3.27438689      -4.50014867
C       -8.13638095      -2.38540317      -3.96235589
C       -8.73172348      -1.44091895      -5.01509764
C       -7.74579522      -0.49361987      -5.65151081
C       -7.45223837      -0.53058432      -6.95954343
C       -6.50132122       0.40746063      -7.59309657
O       -6.31562477       0.34732312      -8.80367804
C       -5.82680611       1.39254740      -6.70535906
C       -6.12307239       1.43924299      -5.40357601
C       -7.11413549       0.53769595      -4.78976348
O       -7.40084502       0.66563271      -3.60560607
Br      -4.58634034       2.56282702      -7.46297605
H       -2.25327019      -0.24214383      -3.16223042
H       -3.37086290      -5.22130428      -4.72039577
H       -4.32133668      -3.90644201      -5.34997658
H       -5.06395683      -5.76455141      -3.03569308
H       -5.74950332      -5.76085551      -4.64823449
H       -6.05889011      -3.52678257      -2.57351579
H       -7.24741161      -4.76003294      -2.96093463
H       -7.39439654      -3.90286715      -5.31309841
H       -6.21753269      -2.65017108      -4.91898921
H       -7.76816831      -1.80946822      -3.10588886
H       -8.94292212      -3.02232596      -3.57863456
H       -9.53386370      -0.85452101      -4.55029846
H       -9.21924890      -2.04940290      -5.78770135
H       -7.90180288      -1.25253735      -7.63193422
H       -5.65943622       2.14957247      -4.72962967
O       -1.67159986       4.93217245       3.45995585
C       -2.14746726       3.87744591       3.06185179
C       -1.34518820       2.97067606       2.21418100
C       -1.78092245       1.78092245       1.78092245
C       -3.13935972       1.26735465       2.13243860
O       -3.56253781       0.16941562       1.79270516
C       -3.99158361       2.16279076       2.93188230
H       -4.98567046       1.80522546       3.17244082
C       -3.52570382       3.44511628       3.37901138
C       -4.46530505       4.38425446       4.07814837
C       -4.95484743       3.90585087       5.45265381
C       -3.86000200       3.63371106       6.48741851
C       -3.04969816       4.87758038       6.85848632
C       -2.00734106       4.54629526       7.93050369
C       -1.12584155       5.73974196       8.32215655
C       -0.34730604       6.35639595       7.18722392
C       -0.54797093       7.61734199       6.77705320
C        0.22500310       8.23394174       5.67801852
O        0.02172993       9.40746444       5.38624519
C        1.22923566       7.37761780       4.99123563
C        1.43913903       6.12405965       5.40248478
C        0.70402905       5.53463285       6.53559922
O        0.98120133       4.40419883       6.91782087
Br       2.19188995       8.10876652       3.56961281
H       -0.35689045       3.34290648       1.95784751
H       -5.34362702       4.53244224       3.43649368
H       -4.01781056       5.37889479       4.18104992
H       -5.54612290       2.98975509       5.32832333
H       -5.64592313       4.65810301       5.85456718
H       -3.18854568       2.84698556       6.12365723
H       -4.33782782       3.23814290       7.39240847
H       -3.72055126       5.66312108       7.22668975
H       -2.55021942       5.26838955       5.96808402
H       -1.38256351       3.71427225       7.58668963
H       -2.52185053       4.19039702       8.83163508
H       -0.42114389       5.41850555       9.09903373
H       -1.76284658       6.49810411       8.79540245
H       -1.29045035       8.26182554       7.23399855
H        2.16894519       5.47547244       4.93296617
O        1.58322765      -3.68087050       4.79963001
C        2.08243423      -3.22442268       3.77990805
C        1.28926102      -2.35398890       2.88679533
C        1.78092245      -1.78092245       1.78092245
C        3.20053727      -1.97950570       1.35910999
O        3.70251900      -1.44277731       0.37936227
C        4.01133352      -2.88251108       2.19241207
H        5.03564599      -3.04751098       1.88017978
C        3.47394064      -3.50841003       3.36748081
C        4.28711793      -4.52358418       4.11700578
C        5.54814410      -3.96951868       4.79568932
C        5.31442514      -2.85162185       5.81508458
C        4.47723853      -3.28989176       7.01863457
C        4.32324234      -2.14116640       8.01973126
C        3.45660942      -2.49565546       9.23547518
C        2.04988154      -2.93109093       8.90995344
C        1.59419231      -4.16168765       9.18648616
C        0.21076719      -4.58867107       8.88751890
O       -0.15293537      -5.71423521       9.21067985
C       -0.67308279      -3.60095334       8.21174722
C       -0.22645224      -2.37098561       7.94287203
C        1.13643834      -1.93476126       8.29500342
O        1.47580263      -0.77575224       8.08926351
Br      -2.41222066      -4.12040002       7.77831002
H        0.25658420      -2.20859513       3.19246512
H        4.59596462      -5.30551543       3.41108290
H        3.67390322      -5.04075651       4.86309554
H        6.23878193      -3.59680017       4.02861923
H        6.06769753      -4.80020692       5.29068887
H        4.84132839      -1.99199730       5.32586278
H        6.29290936      -2.50505572       6.17041410
H        4.95257141      -4.14686065       7.51093004
H        3.49084180      -3.61669698       6.67915420
H        3.91180005      -1.26405251       7.50767283
H        5.31612745      -1.84644462       8.38131056
H        3.41065307      -1.62579768       9.90223242
H        3.96909408      -3.28017992       9.80707914
H        2.21732574      -4.91697653       9.65197217
H       -0.84490298      -1.62309843       7.46129797
C       -0.00445707       0.01189536      -1.78238275
H       -0.66409135       0.67374010      -2.43557963
H        0.65740317      -0.63156657      -2.45157240
C       -0.90989263      -0.90692880      -0.91072765
C        0.90977584       0.90977584      -0.90977584
C       -0.00465871       1.77757030       0.00794375
H       -0.66225468       2.44313916      -0.64384735
H        0.64322798       2.43503045       0.67728295
C       -1.78241447       0.00034974      -0.00472694
H       -2.45427497      -0.65498947       0.64260836
H       -2.43311707       0.67328779      -0.65473579
C       -0.91132561       0.90220522       0.91563759
C       -0.01476271      -0.02253852       1.78660255
H       -0.67934791      -0.69751639       2.42135241
H        0.63392994       0.61504881       2.47327442
C        0.01484550      -1.77751727      -0.01636693
H        0.67870853      -2.42144646      -0.68295456
H       -0.62264859      -2.45592969       0.64226336
C        1.78714474       0.01002794       0.00389507
H        2.44202412       0.67113390       0.66197326
H        2.45385902      -0.65136977      -0.64189061
C        0.91606151      -0.90478549       0.90901405
