165
Properties=species:S:1:pos:R:3 pbc="F F F"
C        0.00000000       0.00000000       0.00000000
O        4.17594970       0.93237230      -2.22569409
C        3.02732366       1.30395611      -2.02577312
C        2.12315177       0.50456232      -1.17261910
C        0.87101843       0.87101843      -0.87101843
C        0.28173576       2.14536773      -1.38233740
O       -0.84284038       2.53896298      -1.09882391
C        1.13093688       2.94624363      -2.27936409
H        0.70197930       3.86104312      -2.67060225
C        2.46672534       2.53973910      -2.61365497
C        3.25423104       3.31093922      -3.63282555
C        3.62383732       4.74227059      -3.21753212
C        4.44979317       4.86695624      -1.93467009
C        5.82500698       4.20252193      -2.02852389
C        6.61558475       4.40609150      -0.73275169
C        7.99209203       3.72789675      -0.73803921
C        7.96658028       2.23618012      -0.95845343
C        8.52492194       1.65654152      -2.03119058
C        8.52018240       0.19351598      -2.24354671
O        9.09110536      -0.27245048      -3.22361274
C        7.81998824      -0.63732084      -1.22723830
C        7.27057405      -0.06521087      -0.15233014
C        7.32844555       1.38878036       0.08073496
O        6.86935600       1.85719474       1.11544444
H        2.55050982      -0.42251139      -0.79993394
H        2.66141535       3.36631216      -4.55512336
H        4.16499677       2.77029467      -3.91275176
H        2.70685112       5.33255717      -3.09508096
H        4.17528788       5.21033861      -4.04325476
H        3.89174242       4.44946321      -1.08827077
H        4.58501619       5.93427202      -1.71937890
H        6.38523126       4.62314148      -2.87227728
H        5.70284646       3.13334557      -2.22078887
H        6.02286959       4.04708622       0.11614250
H        6.76399611       5.48068083      -0.56949362
H        8.49129186       3.93436516       0.21668593
H        8.61080518       4.20980938      -1.50602652
H        9.01849341       2.23141990      -2.80664906
H        6.76198142      -0.63954084       0.61265923
C        7.76978797      -2.06251790      -1.42697130
C        7.72774525      -3.25612044      -1.59424769
Br       7.65976573      -5.18607479      -1.86471946
O       -2.62466479      -0.72929445      -3.98005685
C       -2.19155365      -1.21957309      -2.94592615
C       -1.34148549      -0.41860858      -2.04023911
C       -0.87101843      -0.87101843      -0.87101843
C       -1.17968633      -2.24851802      -0.38123654
O       -0.80510709      -2.68846614       0.69862672
C       -1.98015903      -3.09854033      -1.27784524
H       -2.18979356      -4.10577687      -0.93805424
C       -2.46731705      -2.61422574      -2.53857661
C       -3.16656956      -3.54826558      -3.48316067
C       -4.51818175      -4.08023418      -2.98522410
C       -5.57089156      -3.01610344      -2.66442450
C       -5.98893711      -2.18665409      -3.88046159
C       -7.07632088      -1.17718674      -3.50092031
C       -7.51538463      -0.27819797      -4.66444539
C       -6.41296754       0.54019167      -5.28843796
C       -6.02768568       0.37769215      -6.56266051
C       -4.96102050       1.18969020      -7.18591479
O       -4.69198907       1.01986053      -8.37013907
C       -4.27749819       2.18991661      -6.32232412
C       -4.66423832       2.36179207      -5.05524708
C       -5.76645249       1.58746390      -4.45750236
O       -6.12855671       1.83003387      -3.31258346
H       -1.11629299       0.58353955      -2.39517892
H       -2.50879469      -4.40790250      -3.66615368
H       -3.30259836      -3.08086545      -4.46457939
H       -4.35929915      -4.68906452      -2.08612558
H       -4.92166448      -4.76322417      -3.74399259
H       -5.20429779      -2.35438726      -1.87079134
H       -6.45541953      -3.52360640      -2.25964118
H       -6.35995690      -2.84789714      -4.67279599
H       -5.11936922      -1.65795536      -4.27965633
H       -6.72755715      -0.56361285      -2.66264332
H       -7.95708076      -1.72036631      -3.13672348
H       -8.30036926       0.40085358      -4.30945541
H       -7.99152852      -0.90866019      -5.42645237
H       -6.48251025      -0.36039030      -7.21366182
H       -4.19646501       3.08740634      -4.40072268
C       -3.21095113       2.97057152      -6.89386176
C       -2.31771797       3.62437001      -7.37252454
Br      -0.87343550       4.68150687      -8.14648178
O       -3.98396373       0.73210631       2.61794606
C       -2.92142823       1.20194146       2.23368320
C       -2.02480313       0.40749900       1.36803105
C       -0.87101843       0.87101843       0.87101843
C       -0.39428156       2.25790677       1.15725255
O        0.63237877       2.73614607       0.69117922
C       -1.23199188       3.06553878       2.05901395
H       -0.88119679       4.06485547       2.28757241
C       -2.45948139       2.55729939       2.60333863
C       -3.21891564       3.35808334       3.62099683
C       -3.81113665       4.67465935       3.09784404
C       -4.78497923       4.54230752       1.92413275
C       -6.04563977       3.74497452       2.26543850
C       -6.99605744       3.69270424       1.06566625
C       -8.26619163       2.87044412       1.32139224
C       -8.02732651       1.43103917       1.70284816
C       -8.38375874       0.93298732       2.89590798
C       -8.16990541      -0.48149319       3.26883286
O       -8.56354089      -0.88066551       4.35939224
C       -7.48864645      -1.35049196       2.27175121
C       -7.14030281      -0.86113731       1.07852783
C       -7.40770163       0.53585134       0.69293797
O       -7.13073005       0.91795977      -0.43758351
H       -2.37038411      -0.60138485       1.15893310
H       -2.53813543       3.59604603       4.44866942
H       -4.01662442       2.75846363       4.07295515
H       -2.99590856       5.34385286       2.79472784
H       -4.32123518       5.17867678       3.92896929
H       -4.27710394       4.08625677       1.06611569
H       -5.07763209       5.55176873       1.60926629
H       -6.55635034       4.20352748       3.12077220
H       -5.76821006       2.72929615       2.55947470
H       -6.46170754       3.29787253       0.19423325
H       -7.29678877       4.71444542       0.80293637
H       -8.89151845       2.89694543       0.42050721
H       -8.85081725       3.37324154       2.10258228
H       -8.85598711       1.54240345       3.65817181
H       -6.65216428      -1.46700045       0.32461751
C       -7.23619770      -2.72418576       2.62222944
C       -7.02477187      -3.87465431       2.91575495
Br      -6.68291418      -5.73486466       3.39036088
O        2.62232278      -0.73027222       3.98142109
C        2.19030992      -1.22011724       2.94662573
C        1.34031720      -0.41911262       2.04090336
C        0.87101843      -0.87101843       0.87101843
C        1.18103161      -2.24794205       0.38046724
O        0.80754727      -2.68738147      -0.69998223
C        1.98147078      -3.09803361       1.27704021
H        2.19207578      -4.10487379       0.93667510
C        2.46737161      -2.61427702       2.53847078
C        3.16661665      -3.54849354       3.48288563
C        4.51897009      -4.07912966       2.98554028
C        5.57114350      -3.01401017       2.66626583
C        5.98771535      -2.18513656       3.88320089
C        7.07464439      -1.17461313       3.50517041
C        7.51222213      -0.27614716       4.66965870
C        6.40876647       0.54099847       5.29344584
C        6.02268429       0.37730329       6.56727304
C        4.95498565       1.18808360       7.19034304
O        4.68522394       1.01720685       8.37425053
C        4.27136477       2.18843962       6.32698054
C        4.65889332       2.36150664       5.06030665
C        5.76209541       1.58840339       4.46279893
O        6.12484915       1.83205911       3.31831627
H        1.11414699       0.58261702       2.39640239
H        2.50932984      -4.40873558       3.66478545
H        3.30160177      -3.08170296       4.46473847
H        4.36117382      -4.68742615       2.08588928
H        4.92239840      -4.76237555       3.74410730
H        5.20464458      -2.35198639       1.87284543
H        6.45632825      -3.52058417       2.26175469
H        6.35864089      -2.84668308       4.67532606
H        5.11747942      -1.65735200       4.28214949
H        6.72604234      -0.56068660       2.66708437
H        7.95605754      -1.71689568       3.14121733
H        8.29697264       0.40372518       4.31572364
H        7.98827137      -0.90681530       5.43155440
H        6.47757171      -0.36092040       7.21807026
H        4.19106868       3.08725535       4.40596803
C        3.20384409       2.96791417       6.89831145
C        2.30979551       3.62072410       7.37680109
Br       0.86419459       4.67626256       8.15047837
