114
Properties=species:S:1:pos:R:3 pbc="F F F"
C        1.78171276       1.78171276      -1.78171276
C        2.63761692       2.73102577      -1.28680511
C        3.31152791       3.39915118      -2.34664711
Br       4.55540155       4.76524342      -1.95069172
C        2.95110917       2.94992729      -3.59890816
S        1.79692752       1.67737423      -3.47035486
S        3.39340032       3.38511638      -5.25894776
O        2.14859050       3.73499124      -5.90766003
O        4.47773956       4.33909601      -5.16140045
N        4.01078488       1.99484583      -6.01300976
C        4.09981440       2.07825139      -7.49382354
C        5.24155308       1.14011639      -7.85139385
C        6.21367961       1.37394598      -6.71313636
C        5.30163308       1.46417796      -5.49656566
H        2.76873858       2.94000194      -0.23166723
H        4.33794166       3.09864437      -7.81497074
H        3.16050869       1.76196573      -7.95553148
H        4.89720207       0.09903591      -7.84815085
H        5.67216624       1.35931559      -8.83217250
H        6.95963861       0.57993898      -6.61944043
H        6.74137631       2.32434884      -6.85935797
H        5.11510217       0.47005465      -5.07580185
H        5.74895461       2.08445805      -4.71513835
C       -1.78171276      -1.78171276      -1.78171276
C       -2.07330441      -1.49270400      -3.08943940
C       -2.92572087      -2.48741528      -3.64419005
Br      -3.49183779      -2.33875080      -5.44074810
C       -3.25778839      -3.48701110      -2.75514513
S       -2.49284438      -3.21643792      -1.23537431
S       -4.27254802      -4.93817598      -2.82674047
O       -5.24537068      -4.77774782      -1.76812326
O       -4.68780883      -5.08475315      -4.20567404
N       -3.29508470      -6.27414498      -2.44941079
C       -4.04045873      -7.51548046      -2.11595015
C       -3.09031212      -8.63631021      -2.50644099
C       -2.44980186      -8.08645031      -3.76450979
C       -2.22172814      -6.62032065      -3.42032790
H       -1.70540462      -0.61964247      -3.61536067
H       -4.96472543      -7.58627817      -2.70055318
H       -4.28159050      -7.54648597      -1.04992943
H       -2.33196500      -8.78412063      -1.72830319
H       -3.60743374      -9.58552479      -2.67069579
H       -1.52387361      -8.60277050      -4.03237392
H       -3.14578400      -8.17127015      -4.60802897
H       -1.25630493      -6.48374876      -2.92090498
H       -2.22847295      -5.99964515      -4.32043291
C       -1.78171276       1.78171276       1.78171276
C       -2.30287790       1.37138956       2.98118034
C       -3.09168116       2.40219969       3.56344534
Br      -3.93732520       2.10687204       5.22713945
C       -3.15181800       3.54819150       2.79993513
S       -2.20807893       3.36646193       1.37011574
S       -3.96691034       5.11402881       2.95652532
O       -4.78111519       5.24245328       1.76767330
O       -4.56297851       5.13986161       4.27539590
N       -2.77725007       6.32470890       2.91668151
C       -3.29465691       7.69727698       2.67995544
C       -2.27596167       8.60076249       3.35633916
C       -1.91049503       7.80049841       4.58976851
C       -1.82696902       6.37457072       4.06083695
H       -2.13619070       0.39150433       3.41271272
H       -4.27933526       7.82977987       3.14244166
H       -3.36576360       7.90366608       1.60857622
H       -1.39598408       8.73286576       2.71553899
H       -2.68318599       9.58745121       3.59301712
H       -0.97614394       8.13139627       5.05147782
H       -2.70879001       7.87834315       5.33794996
H       -0.82344918       6.16025001       3.67725948
H       -2.05086362       5.64960066       4.84808673
C        1.78171276      -1.78171276       1.78171276
C        2.34261898      -2.95743946       1.35538936
C        3.09725565      -3.56011521       2.39995534
Br       3.98151283      -5.20074225       2.08908161
C        3.08515895      -2.83975650       3.57502917
S        2.16303263      -1.39702590       3.38459807
S        3.78027051      -3.06802188       5.18917208
O        2.65538838      -3.03755881       6.09829458
O        4.64258633      -4.22783908       5.10781061
N        4.76746983      -1.72774639       5.52342425
C        5.14502768      -1.57456456       6.95229709
C        6.47860226      -0.84572850       6.90873256
C        7.14029056      -1.46554694       5.69492446
C        5.99479938      -1.57102154       4.69655578
H        2.21538896      -3.36540056       0.35961823
H        5.26721704      -2.55229209       7.43204765
H        4.38920232      -0.99718533       7.49161824
H        6.32326999       0.22796672       6.74908555
H        7.05886014      -0.97903814       7.82575604
H        7.97476306      -0.87058074       5.31367423
H        7.51724906      -2.46543010       5.94240395
H        5.89727162      -0.64621449       4.11747256
H        6.15880944      -2.39404567       3.99569590
C       -0.00445707       0.01189536      -1.78238275
H       -0.66409135       0.67374010      -2.43557963
H        0.65740317      -0.63156657      -2.45157240
C       -0.90989263      -0.90692880      -0.91072765
C        0.90977584       0.90977584      -0.90977584
C       -0.00465871       1.77757030       0.00794375
H       -0.66225468       2.44313916      -0.64384735
H        0.64322798       2.43503045       0.67728295
C       -1.78241447       0.00034974      -0.00472694
H       -2.45427497      -0.65498947       0.64260836
H       -2.43311707       0.67328779      -0.65473579
C       -0.91132561       0.90220522       0.91563759
C       -0.01476271      -0.02253852       1.78660255
H       -0.67934791      -0.69751639       2.42135241
H        0.63392994       0.61504881       2.47327442
C        0.01484550      -1.77751727      -0.01636693
H        0.67870853      -2.42144646      -0.68295456
H       -0.62264859      -2.45592969       0.64226336
C        1.78714474       0.01002794       0.00389507
H        2.44202412       0.67113390       0.66197326
H        2.45385902      -0.65136977      -0.64189061
C        0.91606151      -0.90478549       0.90901405
