110
Properties=species:S:1:pos:R:3 pbc="F F F"
Cl       8.96383309       5.67456177      -8.92809481
C        7.79946256       5.11441324      -7.79287972
C        6.52518404       4.75322411      -8.22576657
C        5.57607670       4.29333834      -7.30597158
C        5.90628977       4.19538755      -5.95341391
C        7.18702806       4.56341694      -5.52736573
C        8.13478572       5.02240401      -6.44479649
O        5.07349687       3.75399851      -4.95906580
S        3.53792603       3.29237555      -5.23867432
O        2.73723490       4.43731297      -5.61847701
O        3.54177822       2.05363846      -5.98946415
C        3.00402117       2.89649448      -3.59377463
S        1.85645876       1.62358533      -3.46530327
C        1.78174759       1.78174759      -1.78174759
C        2.57973991       2.78356578      -1.29250147
C        3.27203273       3.43079354      -2.35163226
Br       4.41497772       4.89057827      -1.98318350
H        6.26230401       4.82510086      -9.27829227
H        4.59521519       4.02093506      -7.68591084
H        7.45376509       4.49270714      -4.47502548
H        9.12729983       5.30345921      -6.10239961
H        2.65374490       3.04330930      -0.24319528
Cl      -6.30460583      -9.95899696      -7.30288689
C       -5.64020517      -8.62995864      -6.43659171
C       -5.96689668      -8.44219773      -5.09508031
C       -5.42550149      -7.36434505      -4.38554009
C       -4.55650735      -6.47668381      -5.02190007
C       -4.23677372      -6.67109030      -6.36994672
C       -4.77666561      -7.74663830      -7.07868231
O       -3.95585991      -5.39233992      -4.43836136
S       -4.20532539      -4.97994373      -2.88370678
O       -5.56693407      -4.52148805      -2.70460276
O       -3.59116213      -5.97031950      -2.02339920
C       -3.21748028      -3.51102297      -2.76578702
S       -2.48731849      -3.22073799      -1.23729088
C       -1.78174759      -1.78174759      -1.78174759
C       -2.08904244      -1.48273007      -3.08403465
C       -2.93162977      -2.48359622      -3.63923255
Br      -3.56067244      -2.31437188      -5.41369519
H       -6.64147776      -9.13129805      -4.59292133
H       -5.70523394      -7.25559007      -3.34123707
H       -3.56202332      -5.98373630      -6.87573809
H       -4.51933723      -7.88876763      -8.12505379
H       -1.74115796      -0.59697770      -3.60211383
Cl      -6.03964244       9.80969418       7.71715305
C       -5.42105810       8.50993279       6.77576464
C       -5.60672293       8.50266874       5.39478305
C       -5.10170252       7.44898824       4.62469586
C       -4.41037962       6.40440825       5.24030336
C       -4.23165594       6.41836584       6.62778895
C       -4.73533825       7.46967862       7.39696935
O       -3.86222404       5.32424629       4.60009086
S       -3.97018557       5.10835459       2.99043574
O       -5.34194702       4.83319560       2.61788225
O       -3.15978615       6.10462900       2.32046568
C       -3.13410944       3.55455497       2.80562586
S       -2.26483649       3.34218354       1.33832732
C       -1.78174759       1.78174759       1.78174759
C       -2.26848457       1.38634026       3.00098232
C       -3.06100119       2.41525509       3.57820226
Br      -3.90708448       2.13630566       5.24534937
H       -6.14242546       9.31443385       4.90883784
H       -5.26743363       7.48324712       3.55138034
H       -3.69602790       5.60792655       7.11754326
H       -4.58849220       7.47078164       8.47388481
H       -2.07783536       0.41682332       3.44559080
Cl       9.37033932      -5.73917295       8.45697740
C        8.13453580      -5.16432862       7.40789110
C        6.99084364      -4.57280395       7.94052713
C        5.98471741      -4.10030533       7.09036388
C        6.12715754      -4.22077120       5.70716249
C        7.27731621      -4.81908175       5.18141277
C        8.28189080      -5.29080039       6.02929503
O        5.22221145      -3.79244365       4.77190609
S        3.81258864      -3.08402684       5.17236041
O        2.93772894      -4.04566020       5.80963574
O        4.07907438      -1.77453373       5.73127271
C        3.10206413      -2.82465640       3.56756974
S        2.11635342      -1.42650604       3.40248790
C        1.78174759      -1.78174759       1.78174759
C        2.36960741      -2.94092914       1.34527061
C        3.12015437      -3.54307332       2.39123084
Br       4.00667392      -5.18620681       2.09585877
H        6.87473575      -4.47394531       9.01701608
H        5.11037250      -3.64465325       7.54703534
H        7.39709113      -4.91961601       4.10479057
H        9.17197714      -5.75191931       5.60926221
H        2.25925504      -3.33785223       0.34314221
C       -0.00445707       0.01189536      -1.78238275
H       -0.66409135       0.67374010      -2.43557963
H        0.65740317      -0.63156657      -2.45157240
C       -0.90989263      -0.90692880      -0.91072765
C        0.90977584       0.90977584      -0.90977584
C       -0.00465871       1.77757030       0.00794375
H       -0.66225468       2.44313916      -0.64384735
H        0.64322798       2.43503045       0.67728295
C       -1.78241447       0.00034974      -0.00472694
H       -2.45427497      -0.65498947       0.64260836
H       -2.43311707       0.67328779      -0.65473579
C       -0.91132561       0.90220522       0.91563759
C       -0.01476271      -0.02253852       1.78660255
H       -0.67934791      -0.69751639       2.42135241
H        0.63392994       0.61504881       2.47327442
C        0.01484550      -1.77751727      -0.01636693
H        0.67870853      -2.42144646      -0.68295456
H       -0.62264859      -2.45592969       0.64226336
C        1.78714474       0.01002794       0.00389507
H        2.44202412       0.67113390       0.66197326
H        2.45385902      -0.65136977      -0.64189061
C        0.91606151      -0.90478549       0.90901405
