97
Properties=species:S:1:pos:R:3 pbc="F F F"
C        0.00000000       0.00000000       0.00000000
Cl       8.05392907       4.76465775      -8.01819078
C        6.88955854       4.20450922      -6.88297570
C        5.61528002       3.84332008      -7.31586255
C        4.66617267       3.38343431      -6.39606756
C        4.99638575       3.28548352      -5.04350988
C        6.27712404       3.65351291      -4.61746171
C        7.22488170       4.11249998      -5.53489246
O        4.16359285       2.84409449      -4.04916178
S        2.62802200       2.38247153      -4.32877029
O        1.82733087       3.52740894      -4.70857299
O        2.63187420       1.14373443      -5.07956013
C        2.09411714       1.98659045      -2.68387060
S        0.94655473       0.71368131      -2.55539924
C        0.87184357       0.87184357      -0.87184357
C        1.66983588       1.87366175      -0.38259745
C        2.36212871       2.52088952      -1.44172824
H        5.35239999       3.91519684      -8.36838825
H        3.68531117       3.11103103      -6.77600681
H        6.54386107       3.58280312      -3.56512145
H        8.21739581       4.39355519      -5.19249559
H        1.74384088       2.13340527       0.66670874
C        3.23282826       3.63295871      -1.16104267
C        3.96203914       4.56431666      -0.92596850
Br       5.14111145       6.07024370      -0.54587345
Cl      -5.30058792      -9.00831522      -6.52787445
C       -4.65254610      -7.68742403      -5.63707333
C       -4.93553722      -7.56030373      -4.27862170
C       -4.40715256      -6.48921335      -3.54930863
C       -3.59494684      -5.54747900      -4.18295331
C       -3.31890908      -5.68126048      -5.54792910
C       -3.84584527      -6.75002214      -6.27640674
O       -3.01231987      -4.46316914      -3.58136010
S       -3.21831562      -4.11649579      -2.00445242
O       -4.58789656      -3.71585055      -1.75956570
O       -2.53731385      -5.11356482      -1.20429009
C       -2.28018865      -2.61695774      -1.86743181
S       -1.50445810      -2.35477254      -0.35640464
C       -0.87184357      -0.87184357      -0.87184357
C       -1.23801953      -0.53788221      -2.15019335
C       -2.06420528      -1.54886399      -2.71167719
H       -5.56572923      -8.29167327      -3.77858256
H       -4.65148790      -6.42856160      -2.49229951
H       -2.68862062      -4.95149807      -6.05166695
H       -3.62276169      -6.84476433      -7.33592056
H       -0.94174645       0.37826890      -2.64705985
C       -2.59779521      -1.38940585      -4.03962858
C       -3.04467678      -1.25585965      -5.15178787
Br      -3.76724648      -1.03992675      -6.95005537
Cl      -4.95991689       8.71977272       7.15708799
C       -4.37011191       7.45427217       6.15265937
C       -4.42140507       7.58657936       4.76647822
C       -3.93907627       6.56094012       3.94565816
C       -3.40511579       5.40433789       4.51592547
C       -3.36074335       5.27876487       5.90859045
C       -3.84186636       6.30200724       6.72840054
O       -2.89490046       4.33684379       3.82510486
S       -2.86543051       4.27493679       2.19889653
O       -4.21365437       4.16746281       1.68219562
O       -1.90955170       5.24335018       1.70226688
C       -2.15545722       2.66996145       1.93915953
S       -1.17057941       2.50460058       0.54045529
C       -0.87184357       0.87184357       0.87184357
C       -1.50700568       0.41951997       1.99956943
C       -2.25791143       1.46536000       2.60147503
H       -4.83410234       8.48591470       4.31596803
H       -3.99667535       6.70540351       2.87027016
H       -2.94837120       4.38041584       6.36299860
H       -3.80022512       6.19411000       7.80911146
H       -1.44629540      -0.59923889       2.36348090
C       -3.03833882       1.20514407       3.78334675
C       -3.69194676       0.98721323       4.77316431
Br      -4.74877552       0.63483748       6.37361559
Cl       8.10090706      -4.76587005       7.97000049
C        6.92823793      -4.20517259       6.84363293
C        5.66578831      -3.81913635       7.28953799
C        4.71004544      -3.35872372       6.37690539
C        5.02178408      -3.28516511       5.01842997
C        6.29069353      -3.67803605       4.57936908
C        7.24506533      -4.13756453       5.48964428
O        4.18097148      -2.84602631       4.02985132
S        2.65648924      -2.35796232       4.32481226
O        1.84499836      -3.48543996       4.73287448
O        2.68923107      -1.10870141       5.05723628
C        2.10431167      -1.97809635       2.68217018
S        0.97349223      -0.69049664       2.55164641
C        0.87184357      -0.87184357       0.87184357
C        1.64803039      -1.89220813       0.38585657
C        2.34634931      -2.53414778       1.44424938
H        5.41734863      -3.87194595       8.34669049
H        3.73889269      -3.06651863       6.76693770
H        6.54297525      -3.62644700       3.52236339
H        8.22829339      -4.43804830       5.13710490
H        1.70289312      -2.16813452      -0.66049023
C        3.19669184      -3.66279349       1.16734430
C        3.90885372      -4.60803428       0.93543630
Br       5.06035924      -6.13640869       0.56046068
