98
Properties=species:S:1:pos:R:3 pbc="F F F"
C        1.79537579       1.79537579      -1.79537579
C        1.53645156       3.16813386      -1.84434217
C        2.32394617       4.01170361      -2.64243080
C        3.37263808       3.44839989      -3.38695876
C        3.62903041       2.07438750      -3.33566662
C        2.84063899       1.24298519      -2.53915752
O        3.10196822      -0.10051407      -2.49762794
C        2.08144371       5.44700521      -2.71647494
O        1.04662881       5.95659302      -1.97173932
C        1.11730401       7.28098478      -2.27917872
N        2.08152697       7.57330674      -3.11797943
N        2.71134592       6.37893903      -3.40423705
H        0.71731684       3.57979347      -1.25746987
H        3.99440226       4.08912483      -4.01229423
H        2.45846652      -0.51763006      -1.89681194
H        0.39704175       7.93933309      -1.81811242
C        4.71794058       1.55325286      -4.12071014
C        5.62990285       1.11680260      -4.77818409
Br       7.10446870       0.41109944      -5.84126386
C       -1.79537579      -1.79537579      -1.79537579
C       -1.55473003      -3.17206674      -1.82213081
C       -2.34285263      -4.01577183      -2.61945612
C       -3.37348645      -3.44858284      -3.38592744
C       -3.61161509      -2.07064017      -3.35682927
C       -2.82274187      -1.23913417      -2.56090566
O       -3.06609393       0.10823374      -2.54122189
C       -2.11914595      -5.45511683      -2.67066108
O       -1.10165002      -5.96840867      -1.90490245
C       -1.18636701      -7.29582496      -2.19527555
N       -2.14304468      -7.58654617      -3.04322229
N       -2.75241981      -6.38779059      -3.35431161
H       -0.74938272      -3.58669320      -1.21850427
H       -3.99546312      -4.08935340      -4.01100481
H       -2.42512870       0.52480451      -1.93732421
H       -0.48156103      -7.95748322      -1.71544301
C       -4.68248997      -1.54562399      -4.16378962
C       -5.57934769      -1.10592294      -4.83961891
Br      -7.02949076      -0.39496354      -5.93237771
C       -1.79537579       1.79537579       1.79537579
C       -3.04130904       1.30765965       2.19995890
C       -3.88052624       2.08730227       3.01025206
C       -3.44252267       3.36203558       3.40343849
C       -2.19521963       3.84701151       2.99685339
C       -1.36715960       3.06464956       2.19097254
O       -0.14838154       3.55097576       1.79972479
C       -5.18539641       1.60950158       3.45002588
O       -5.57432217       0.35701240       3.04362658
C       -6.80135678       0.25205536       3.62405538
N       -7.14653368       1.31162861       4.31465086
N       -6.09425612       2.19777811       4.20248778
H       -3.35731148       0.31595947       1.88130923
H       -4.08177085       3.98113567       4.03291481
H        0.28634551       2.87570373       1.24829018
H       -7.35211500      -0.66229937       3.46467163
C       -1.79920073       5.16163041       3.43107244
C       -1.46753491       6.26262374       3.79473089
Br      -0.93125932       8.04283684       4.38273584
C        1.79537579      -1.79537579       1.79537579
C        3.14849235      -1.47123115       1.92920408
C        3.99139073      -2.25649644       2.73019341
C        3.44749488      -3.36963296       3.39086889
C        2.09309878      -3.69116197       3.25482378
C        1.26221374      -2.90448813       2.45607984
O       -0.06197723      -3.22993131       2.33112801
C        5.40648240      -1.94688613       2.89155533
O        5.89710149      -0.84908486       2.22877480
C        7.20645613      -0.86982870       2.60118268
N        7.50724967      -1.86218187       3.40338160
N        6.33502486      -2.56552718       3.59396997
H        3.54534108      -0.60291634       1.40632276
H        4.08798975      -3.99063317       4.01719841
H       -0.48182742      -2.57735059       1.74212524
H        7.84794432      -0.09358173       2.21296122
C        1.59132860      -4.84437258       3.95620240
C        1.17109607      -5.81018646       4.54360700
Br       0.49161561      -7.37182583       5.49339056
C       -0.00445707       0.01189536      -1.78238275
H       -0.66409135       0.67374010      -2.43557963
H        0.65740317      -0.63156657      -2.45157240
C       -0.90989263      -0.90692880      -0.91072765
C        0.90977584       0.90977584      -0.90977584
C       -0.00465871       1.77757030       0.00794375
H       -0.66225468       2.44313916      -0.64384735
H        0.64322798       2.43503045       0.67728295
C       -1.78241447       0.00034974      -0.00472694
H       -2.45427497      -0.65498947       0.64260836
H       -2.43311707       0.67328779      -0.65473579
C       -0.91132561       0.90220522       0.91563759
C       -0.01476271      -0.02253852       1.78660255
H       -0.67934791      -0.69751639       2.42135241
H        0.63392994       0.61504881       2.47327442
C        0.01484550      -1.77751727      -0.01636693
H        0.67870853      -2.42144646      -0.68295456
H       -0.62264859      -2.45592969       0.64226336
C        1.78714474       0.01002794       0.00389507
H        2.44202412       0.67113390       0.66197326
H        2.45385902      -0.65136977      -0.64189061
C        0.91606151      -0.90478549       0.90901405
