69
Properties=species:S:1:pos:R:3 pbc="F F F"
C        0.00000000       0.00000000       0.00000000
C        0.88547177       0.88547177      -0.88547177
C        0.62654753       2.25822983      -0.93443814
C        1.41404215       3.10179959      -1.73252677
C        2.46273406       2.53849587      -2.47705474
C        2.71912639       1.16448347      -2.42576259
Br       4.15353777       0.47799759      -3.45989323
C        1.93073497       0.33308117      -1.62925349
O        2.19206419      -1.01041810      -1.58772392
C        1.17153968       4.53710119      -1.80657092
O        0.13672479       5.04668900      -1.06183529
C        0.20739999       6.37108076      -1.36927470
N        1.17162294       6.66340271      -2.20807541
N        1.80144190       5.46903501      -2.49433303
H       -0.19258718       2.66988944      -0.34756584
H        3.08449824       3.17922081      -3.10239021
H        1.54856250      -1.42753409      -0.98690792
H       -0.51286227       7.02942907      -0.90820839
C       -0.88547177      -0.88547177      -0.88547177
C       -0.61449049      -2.25528236      -0.94944267
C       -1.40157086      -3.09875070      -1.74804695
C       -2.46217446      -2.53835879      -2.47775142
C       -2.73061407      -1.16729188      -2.41146650
Br      -4.18069676      -0.48463790      -3.42609393
C       -1.94254045      -0.33596729      -1.61456189
O       -2.21572797       1.00463269      -1.55827473
C       -1.14667011      -4.53102193      -1.83751975
O       -0.10043074      -5.03783217      -1.10698616
C       -0.16184360      -6.35995744      -1.42595440
N       -1.13104401      -6.65348069      -2.25857637
N       -1.77434851      -5.46240224      -2.52805919
H        0.21373881      -2.66471849      -0.37388843
H       -3.08379847      -3.17904954      -3.10326125
H       -1.57055314       1.42215732      -0.95954051
H        0.56861434      -7.01582402      -0.97756551
C       -0.88547177       0.88547177       0.88547177
C       -2.26444653       0.89773202       0.65703696
C       -3.10823023       1.69455919       1.44557910
C       -2.53878509       2.47535039       2.46414918
C       -1.15856006       2.46073565       2.69007674
Br      -0.46399180       3.54257777       4.08485902
C       -0.32699385       1.66519412       1.90088166
O        1.02262061       1.65976659       2.13222404
C       -4.54992317       1.73085968       1.23442894
O       -5.06536439       0.95138205       0.22850263
C       -6.39453725       1.23061791       0.32260029
N       -6.68433048       2.08453292       1.27423767
N       -5.48302762       2.41182688       1.86995544
H       -2.68079586       0.28317192      -0.13909966
H       -3.17958212       3.10025933       3.08626780
H        1.43887481       1.05385786       1.49295329
H       -7.05811649       0.73853903      -0.37188033
C        0.88547177      -0.88547177       0.88547177
C        2.22972063      -0.53936795       1.05012693
C        3.07231453      -1.32387846       1.85217552
C        2.53717964      -2.45870910       2.48239593
C        1.19164355      -2.80218042       2.31554848
Br       0.54219108      -4.34983795       3.19939956
C        0.36099222      -2.01608544       1.51599197
O       -0.95447774      -2.36312673       1.36072103
C        4.47828686      -0.99168871       2.04523622
O        4.96048428       0.12688450       1.41164929
C        6.26302944       0.12301499       1.80774100
N        6.56750329      -0.87836779       2.59722998
N        5.40520618      -1.60625684       2.75334691
H        2.61988074       0.34551105       0.55049843
H        3.17757132      -3.07945419       3.10908374
H       -1.37555895      -1.70749961       0.77599567
H        6.89700544       0.91780644       1.44557619
