105
Properties=species:S:1:pos:R:3 pbc="F F F"
C        0.00000000       0.00000000       0.00000000
C        0.88222650       0.88222650      -0.88222650
C        0.58012320       2.22634045      -1.03231433
C        1.37761040       3.04552302      -1.83806165
C        2.49915403       2.49023742      -2.49401965
C        2.80351292       1.13846977      -2.34419932
C        1.98482403       0.32402247      -1.52824130
C        3.97569813       0.87298104      -3.10053551
C        4.72846751      -0.30923330      -3.29216856
C        5.88792383      -0.27516520      -4.06124490
Br       6.89321897      -1.85637489      -4.30983797
C        6.31614098       0.91081249      -4.63182019
C        5.58219051       2.09087469      -4.45814362
C        4.38652653       2.06933277      -3.70401664
N        3.43999504       3.06224746      -3.37442062
C        3.37305007       4.41068628      -3.81987803
O        2.60106617       5.20234018      -3.28615940
C        4.24948989       4.81867527      -4.95771834
H       -0.28039169       2.66023942      -0.52851597
H        1.11353050       4.09466433      -1.94213035
H        2.21983222      -0.72937901      -1.40500729
H        4.40361320      -1.23617697      -2.82749025
H        7.23194435       0.93900047      -5.21855826
H        5.97899295       2.99102208      -4.91099774
H        4.19108471       4.10496276      -5.78254711
H        5.27293258       4.97622587      -4.61152560
H        3.88736625       5.77663618      -5.34769975
C       -0.88222650      -0.88222650      -0.88222650
C       -0.93178898      -2.24888257      -0.65810643
C       -1.73342624      -3.06898680      -1.45878204
C       -2.49781472      -2.48938640      -2.49620997
C       -2.44823647      -1.11514015      -2.72280539
C       -1.63012393      -0.30117599      -1.90578789
C       -3.31771517      -0.82427998      -3.80721952
C       -3.66337122       0.39247296      -4.44050452
C       -4.59953275       0.39587257      -5.47034336
Br      -5.06203267       2.02504942      -6.30969879
C       -5.20347739      -0.78262226      -5.87267400
C       -4.87112894      -1.99826555      -5.26181434
C       -3.90121610      -2.02511214      -4.23354770
N       -3.35125848      -3.06744141      -3.45796323
C       -3.56063556      -4.46881963      -3.57415918
O       -3.16295101      -5.22996882      -2.69664592
C       -4.25485742      -4.97628703      -4.79473904
H       -0.34754305      -2.70082136       0.14000071
H       -1.74831337      -4.13812647      -1.26388535
H       -1.59081439       0.77104499      -2.07569110
H       -3.20451534       1.32072227      -4.11113342
H       -5.94762106      -0.77551311      -6.66636891
H       -5.39276890      -2.88298819      -5.60525568
H       -3.83255547      -4.54223508      -5.70380404
H       -5.33167379      -4.81473755      -4.71427271
H       -4.09270566      -6.05806004      -4.86093648
C       -0.88222650       0.88222650       0.88222650
C       -2.24545392       0.64270829       0.95061577
C       -3.06554418       1.44316760       1.75248330
C       -2.48936854       2.49630897       2.49773358
C       -1.11858154       2.73839096       2.42920951
C       -0.30462979       1.92132468       1.61113334
C       -0.83043155       3.83637425       3.28240888
C        0.38269325       4.48793051       3.60616551
C        0.38485135       5.52876788       4.53008700
Br       2.00926836       6.39258513       4.96336526
C       -0.79117270       5.92439289       5.14320807
C       -2.00329798       5.29542966       4.83248119
C       -2.02931401       4.25548923       3.87507271
N       -3.06874627       3.46127470       3.34664216
C       -4.46885377       3.56351349       3.57124712
O       -5.22415164       2.67248553       3.19292858
C       -4.98258914       4.78620892       4.25708543
H       -2.69471252      -0.16751309       0.38116426
H       -4.13204949       1.23594435       1.78233133
H        0.76496658       2.10330441       1.55712267
H        1.30934177       4.16404265       3.14022560
H       -0.78475560       6.72688550       5.87786197
H       -2.88585691       5.63464048       5.36051537
H       -4.56432735       5.69522656       3.81904066
H       -4.80748771       4.72041696       5.33277937
H       -6.06689721       4.83779597       4.10700900
C        0.88222650      -0.88222650       0.88222650
C        2.25223630      -0.67562310       0.91091858
C        3.07234991      -1.47654381       1.71230136
C        2.48940887      -2.49609846       2.49790376
C        1.11177759      -2.70507632       2.46932810
C        0.29779838      -1.88811364       1.65117578
C        0.81830545      -3.77406308       3.35684614
C       -0.40194117      -4.38657527       3.72676868
C       -0.40640385      -5.40393606       4.67647132
Br      -2.04015044      -6.21548330       5.17134917
C        0.77463030      -5.81392221       5.27022115
C        1.99365043      -5.22364255       4.91391585
C        2.02108777      -4.20860647       3.93018170
N        3.06609396      -3.45418032       3.35638884
C        4.46848491      -3.58620245       3.54892702
O        5.23571372      -2.72414259       3.12970945
C        4.96909484      -4.80421390       4.25257475
H        2.70679456       0.10870357       0.31027271
H        4.14405253      -1.29566652       1.71060612
H       -0.77698178      -2.04428060       1.62816168
H       -1.33180390      -4.05095593       3.27577445
H        0.76700298      -6.59764434       6.02485575
H        2.88064260      -5.57193055       5.42843963
H        4.51761765      -5.71289187       3.84808506
H        4.82290894      -4.70752358       5.33025152
H        6.04766281      -4.88687037       4.07716900
