126
Properties=species:S:1:pos:R:3 pbc="F F F"
C        1.79213052       1.79213052      -1.79213052
C        1.49002723       3.13624447      -1.94221835
C        2.28751443       3.95542705      -2.74796568
C        3.40905805       3.40014145      -3.40392367
C        3.71341694       2.04837379      -3.25410334
C        2.89472806       1.23392650      -2.43814533
C        4.88560216       1.78288506      -4.01043953
C        5.63837153       0.60067072      -4.20207258
C        6.79782786       0.63473883      -4.97114892
Br       7.80312299      -0.94647087      -5.21974199
C        7.22604500       1.82071651      -5.54172422
C        6.49209454       3.00077871      -5.36804765
C        5.29643056       2.97923679      -4.61392066
N        4.34989906       3.97215149      -4.28432465
C        4.28295409       5.32059030      -4.72978206
O        3.51097019       6.11224420      -4.19606343
C        5.15939391       5.72857929      -5.86762236
H        0.62951233       3.57014344      -1.43841999
H        2.02343452       5.00456835      -2.85203438
H        3.12973625       0.18052501      -2.31491132
H        5.31351722      -0.32627295      -3.73739428
H        8.14184837       1.84890449      -6.12846229
H        6.88889697       3.90092611      -5.82090177
H        5.10098874       5.01486678      -6.69245113
H        6.18283661       5.88612989      -5.52142962
H        4.79727027       6.68654021      -6.25760377
C       -1.79213052      -1.79213052      -1.79213052
C       -1.73612026      -3.17064172      -1.66172807
C       -2.53647914      -3.99072361      -2.46370440
C       -3.40815875      -3.39943462      -3.40552980
C       -3.46482476      -2.01320493      -3.53786440
C       -2.64651708      -1.19914979      -2.72113302
C       -4.42547410      -1.71361685      -4.53983580
C       -4.89376719      -0.48522866      -5.06211900
C       -5.89811135      -0.48003116      -6.02557309
Br      -6.52421559       1.16418419      -6.71636271
C       -6.45023063      -1.66908910      -6.46916600
C       -5.99683048      -2.89583646      -5.96825396
C       -4.95746401      -2.92190028      -5.01022372
N       -4.28726243      -3.97166118      -4.34745159
C       -4.41193921      -5.37363747      -4.54774978
O       -3.90458878      -6.16089058      -3.75379846
C       -5.15535376      -5.84745511      -5.75278670
H       -1.06891988      -3.63181207      -0.93734382
H       -2.46751332      -5.06874394      -2.34377999
H       -2.68962106      -0.11798691      -2.81756461
H       -4.47477850       0.44934050      -4.69920055
H       -7.24711216      -1.66220468      -7.20989831
H       -6.48215462      -3.79056469      -6.33800553
H       -4.82727627      -5.32615971      -6.65487067
H       -6.23213547      -5.76751489      -5.59074576
H       -4.92766656      -6.90850334      -5.90524435
C       -1.79213052       1.79213052       1.79213052
C       -3.11593254       1.44404625       2.00851126
C       -3.93574260       2.24295392       2.81221063
C       -3.39920672       3.40694209       3.40697436
C       -2.06815880       3.75820509       3.18953019
C       -1.25426838       2.94077684       2.37175466
C       -1.81226083       4.95210132       3.91456460
C       -0.64239462       5.73282367       4.06589656
C       -0.65873423       6.85214725       4.89283413
Br       0.90854836       7.88896977       5.09597270
C       -1.80976547       7.20125466       5.57746560
C       -2.97964403       6.44425107       5.43702580
C       -2.98992522       5.32062640       4.57903639
N       -3.99167036       4.39408476       4.22062008
C       -5.37074308       4.39648705       4.56609633
O       -6.06869455       3.41238500       4.33819828
C       -5.93628475       5.62958553       5.18972528
H       -3.53431186       0.54839886       1.55536505
H       -4.97157019       1.94873519       2.95973187
H       -0.21507715       3.20795339       2.20214203
H        0.26717481       5.44730017       3.54451319
H       -1.81573565       8.06676266       6.23671684
H       -3.84159443       6.75458536       6.01454505
H       -5.64434632       6.52596814       4.63799220
H       -5.66415862       5.68035087       6.24588663
H       -7.02950506       5.57365429       5.13825490
C        1.79213052      -1.79213052       1.79213052
C        3.14627458      -1.51927505       1.90294042
C        3.96631481      -2.31926318       2.70532916
C        3.39924044      -3.40643072       3.40745201
C        2.03761370      -3.68204048       3.29623990
C        1.22368597      -2.86486665       2.47824726
C        1.75676214      -4.80942763       4.11273698
C        0.55341677      -5.50057884       4.38711923
C        0.55500734      -6.56533056       5.28337771
Br      -1.05653818      -7.48216634       5.65076595
C        1.72485777      -6.94652060       5.91710736
C        2.92746768      -6.27831932       5.65513390
C        2.95061010      -5.21295501       4.72602291
N        3.98189117      -4.37830002       4.24618400
C        5.37793301      -4.45016561       4.50522783
O        6.11881098      -3.53011894       4.17034790
C        5.90606746      -5.67695001       5.17257809
H        3.58842612      -0.68282466       1.36682499
H        5.02579907      -2.08534335       2.76889483
H        0.16106738      -3.07299773       2.39110747
H       -0.36913542      -5.18853010       3.90524387
H        1.72075628      -7.76816778       6.63029108
H        3.80475940      -6.60847454       6.19749090
H        5.52362385      -6.58452602       4.70015679
H        5.70146520      -5.64435378       6.24457713
H        6.99488844      -5.69641472       5.05011109
C       -0.00445707       0.01189536      -1.78238275
H       -0.66409135       0.67374010      -2.43557963
H        0.65740317      -0.63156657      -2.45157240
C       -0.90989263      -0.90692880      -0.91072765
C        0.90977584       0.90977584      -0.90977584
C       -0.00465871       1.77757030       0.00794375
H       -0.66225468       2.44313916      -0.64384735
H        0.64322798       2.43503045       0.67728295
C       -1.78241447       0.00034974      -0.00472694
H       -2.45427497      -0.65498947       0.64260836
H       -2.43311707       0.67328779      -0.65473579
C       -0.91132561       0.90220522       0.91563759
C       -0.01476271      -0.02253852       1.78660255
H       -0.67934791      -0.69751639       2.42135241
H        0.63392994       0.61504881       2.47327442
C        0.01484550      -1.77751727      -0.01636693
H        0.67870853      -2.42144646      -0.68295456
H       -0.62264859      -2.45592969       0.64226336
C        1.78714474       0.01002794       0.00389507
H        2.44202412       0.67113390       0.66197326
H        2.45385902      -0.65136977      -0.64189061
C        0.91606151      -0.90478549       0.90901405
