97
Properties=species:S:1:pos:R:3 pbc="F F F"
C        0.00000000       0.00000000       0.00000000
N       -0.65061139       4.59841537      -4.96335275
N       -0.42813255       3.67423137      -4.01109965
C        0.80389845       3.44764611      -3.67641843
C        1.14101305       2.48205188      -2.60471494
C        0.29138958       1.70568265      -1.83801648
C        0.88263600       0.88263600      -0.88263600
C        2.27915280       0.84934226      -0.71293919
C        3.11646383       1.64815383      -1.50401680
C        2.53493084       2.47035138      -2.45543961
C        3.12034852       3.39130821      -3.40407969
C        4.45083477       3.71156172      -3.63121455
C        4.75022192       4.64006596      -4.63335031
C        3.72395634       5.22581925      -5.39270744
Br       4.17066187       6.47187212      -6.74525906
C        2.38380487       4.90714249      -5.17045020
C        2.09938620       3.99568462      -4.16778805
H       -1.60711941       4.49032551      -5.31218780
H       -0.64408298       5.53321465      -4.54642182
H       -0.78201976       1.74741097      -1.98541139
H        2.72180712       0.19890275       0.03869067
H        4.19227658       1.61384596      -1.36485087
H        5.24943967       3.25756648      -3.05341403
H        5.78892806       4.90166145      -4.82345528
H        1.59995718       5.35174828      -5.77045556
N       -4.37819874      -5.16139793       0.62843995
N       -3.50016742      -4.16580441       0.40877336
C       -3.33502961      -3.77609973      -0.81683365
C       -2.42467685      -2.65526834      -1.14783468
C       -1.64506114      -1.89132693      -0.29870064
C       -0.88263600      -0.88263600      -0.88263600
C       -0.91072793      -0.65904772      -2.27165860
C       -1.71134603      -1.44868029      -3.10860814
C       -2.47345503      -2.45301857      -2.53424824
C       -3.38016996      -3.41431201      -3.12125446
C       -3.74367229      -3.60336500      -4.44657375
C       -4.64465174      -4.62919274      -4.74979371
C       -5.16044688      -5.44927948      -3.73275668
Br      -6.37103745      -6.83191450      -4.18484110
C       -4.79795433      -5.26552452      -2.39791871
C       -3.91460438      -4.23927519      -2.10897931
H       -4.21945911      -5.54165078       1.56571599
H       -5.32763587      -4.78160074       0.67368312
H       -1.63894068      -2.08075394       0.76889201
H       -0.30710101       0.13378690      -2.70870510
H       -1.72465907      -1.26767087      -4.17864347
H       -3.34361758      -2.97835872      -5.23844388
H       -4.93951063      -4.79000342      -5.78453074
H       -5.18837381      -5.91177500      -1.62201221
N       -5.43494895       4.04276322      -0.56655545
N       -4.33698679       3.29025905      -0.37004736
C       -3.87678251       3.21156972       0.83961076
C       -2.70087965       2.36874705       1.15815317
C       -1.93697941       1.58908085       0.30902845
C       -0.88263600       0.88263600       0.88263600
C       -0.61505349       0.96467482       2.26170593
C       -1.40685169       1.76263736       3.09914540
C       -2.45825060       2.46703937       2.53543187
C       -3.43343790       3.35671728       3.12558124
C       -3.58871993       3.76163046       4.44326065
C       -4.62267413       4.65264503       4.74831903
C       -5.47601246       5.12766619       3.73880439
Br      -6.85829503       6.33868894       4.19080908
C       -5.32453603       4.72559284       2.41126869
C       -4.30488440       3.83415262       2.12382186
H       -5.53113617       4.23235242      -1.56809468
H       -6.27188209       3.50021330      -0.33654190
H       -2.16130978       1.54016096      -0.75066814
H        0.21396407       0.40541638       2.69056689
H       -1.19082113       1.81889426       4.16125802
H       -2.92872594       3.40447862       5.22721562
H       -4.75739139       4.97950038       5.77715303
H       -5.97706714       5.10831085       1.63678303
N        4.73114398       0.65622859       4.83624134
N        3.82952103       0.43470456       3.86238199
C        3.55937921      -0.79916980       3.56941398
C        2.54533454      -1.13833487       2.54411046
C        1.77538688      -0.28843963       1.77126221
C        0.88263600      -0.88263600       0.88263600
C        0.77626084      -2.28224567       0.78292773
C        1.56905105      -3.11981153       1.57977187
C        2.45831596      -2.53544019       2.46696568
C        3.39210418      -3.12031483       3.40331741
C        3.66397288      -4.45284878       3.67678939
C        4.63822168      -4.75029998       4.63511654
C        5.32615075      -3.71971022       5.29662207
Br       6.64324542      -4.16340919       6.58113844
C        5.05865764      -2.37739261       5.02534731
C        4.08382360      -2.09565608       4.08337920
H        5.04170348       1.63045424       4.78414466
H        4.27579156       0.59086765       5.75062958
H        1.87339731       0.78735162       1.86475691
H        0.07303479      -2.72713397       0.08185045
H        1.47904680      -4.19798141       1.49394521
H        3.14165398      -5.25434520       3.16442100
H        4.86273741      -5.79057537       4.86073202
H        5.60418747      -1.58927371       5.52869984
