94
Properties=species:S:1:pos:R:3 pbc="F F F"
N        0.78330765       5.40840497      -4.86167776
C        1.29956832       4.59414722      -4.21561176
C        1.93729899       3.59103287      -3.41484304
C        1.17257589       2.77479920      -2.57580830
C        1.79641090       1.79641090      -1.79641090
C        3.18834585       1.63857234      -1.83660127
O        3.78660747       0.65114997      -1.09795316
C        4.19865809       1.13871724       0.18154248
C        3.94584530       2.44141155      -2.69851843
C        3.32409776       3.42126679      -3.47875276
H        0.09114897       2.89723269      -2.53596883
H        3.95571549       0.37650944       0.92795046
H        3.70919699       2.07549209       0.47412852
H        5.28337262       1.28082593       0.17985164
H        3.91755649       4.04735906      -4.14362892
C        5.37174929       2.28572658      -2.82564048
C        6.56594388       2.15534043      -2.93210520
Br       8.49685552       1.94451704      -3.10424964
N       -0.81925116      -5.59683552      -4.63730370
C       -1.32466431      -4.72890361      -4.05575938
C       -1.94925342      -3.65934873      -3.33457275
C       -1.18547361      -2.83960719      -2.49810259
C       -1.79641090      -1.79641090      -1.79641090
C       -3.17561213      -1.57615673      -1.91175060
O       -3.75869835      -0.52712405      -1.24988820
C       -4.25310190      -0.93200415       0.02927320
C       -3.93046712      -2.38398644      -2.77132171
C       -3.32164519      -3.42859008      -3.47388204
H       -0.11433095      -3.01011304      -2.39990649
H       -4.00824376      -0.14641750       0.75038679
H       -3.82405801      -1.87513975       0.38863720
H       -5.34220353      -1.02342512      -0.01871826
H       -3.91337440      -4.05809197      -4.13707811
C       -5.33962225      -2.16854178      -2.97495232
C       -6.51978967      -1.98810688      -3.14549295
Br      -8.42802057      -1.69635890      -3.42124273
N       -5.72720289       0.85819259       4.46799490
C       -4.83168141       1.35536459       3.92228129
C       -3.72349193       1.96841334       3.25126964
C       -2.87605331       1.19636026       2.45076982
C       -1.79641090       1.79641090       1.79641090
C       -1.54594750       3.16658847       1.95098348
O       -0.50793662       3.75296696       1.27480702
C        0.68223092       3.77092128       2.06714249
C       -2.41359337       3.93931087       2.73287103
C       -3.49398668       3.34117950       3.38895112
H       -3.06235417       0.12993565       2.33206066
H        1.52386288       3.50932210       1.41881525
H        0.66254654       3.06603759       2.90706951
H        0.84616477       4.78374707       2.44676461
H       -4.16314598       3.94475459       4.00064391
C       -2.24064269       5.36115918       2.88131449
C       -2.09579649       6.55195713       3.00563588
Br      -1.86159243       8.47737671       3.20665306
N        6.57035953      -2.61696097       1.86606988
C        5.42738897      -2.61448765       2.06745068
C        4.01631242      -2.60842270       2.31843978
C        3.17244272      -1.80008782       1.55065286
C        1.79641090      -1.79641090       1.79641090
C        1.25677007      -2.58583260       2.82091679
O       -0.09782357      -2.60466983       3.02886433
C       -0.48557206      -1.63540513       4.00599978
C        2.10377646      -3.41303127       3.56896755
C        3.48076155      -3.41798506       3.32537069
H        3.58716393      -1.17991333       0.75727322
H       -1.40141942      -1.15000753       3.65568636
H        0.26994707      -0.85990860       4.18070489
H       -0.70837366      -2.14426326       4.94845731
H        4.13674215      -4.05860986       3.91319247
C        1.59950624      -4.28884100       4.59476912
C        1.17717992      -5.02233165       5.45387793
Br       0.49431399      -6.20832400       6.84298421
C       -0.00445707       0.01189536      -1.78238275
H       -0.66409135       0.67374010      -2.43557963
H        0.65740317      -0.63156657      -2.45157240
C       -0.90989263      -0.90692880      -0.91072765
C        0.90977584       0.90977584      -0.90977584
C       -0.00465871       1.77757030       0.00794375
H       -0.66225468       2.44313916      -0.64384735
H        0.64322798       2.43503045       0.67728295
C       -1.78241447       0.00034974      -0.00472694
H       -2.45427497      -0.65498947       0.64260836
H       -2.43311707       0.67328779      -0.65473579
C       -0.91132561       0.90220522       0.91563759
C       -0.01476271      -0.02253852       1.78660255
H       -0.67934791      -0.69751639       2.42135241
H        0.63392994       0.61504881       2.47327442
C        0.01484550      -1.77751727      -0.01636693
H        0.67870853      -2.42144646      -0.68295456
H       -0.62264859      -2.45592969       0.64226336
C        1.78714474       0.01002794       0.00389507
H        2.44202412       0.67113390       0.66197326
H        2.45385902      -0.65136977      -0.64189061
C        0.91606151      -0.90478549       0.90901405
