114
Properties=species:S:1:pos:R:3 pbc="F F F"
O        0.43555901       6.28363308      -5.14349137
N        0.53088169       5.19331929      -4.28207557
C        1.74461157       4.75420243      -4.16023569
C        2.06452046       3.59801528      -3.29429771
C        1.21539038       2.83418619      -2.51468076
C        1.79252156       1.79252156      -1.79252156
C        3.17476667       1.53668788      -1.85975117
C        4.01200719       2.32763751      -2.65866655
C        3.44486253       3.36599738      -3.37923153
C        4.03393300       4.33886664      -4.27248653
C        5.35418027       4.50698649      -4.66314835
C        5.65866625       5.54560774      -5.54919766
C        4.64698387       6.39465236      -6.02796436
Br       5.10123471       7.78969626      -7.22384298
C        3.31679681       6.23079098      -5.63983421
C        3.02874367       5.19899146      -4.76341043
H       -0.51999713       6.47879860      -5.12539251
H        0.15315594       3.04806516      -2.47708791
H        3.60617689       0.71753009      -1.28790652
H        5.07659236       2.12140234      -2.70269061
H        6.14117895       3.85552385      -4.29686568
H        6.68965810       5.69082990      -5.86486770
H        2.54352982       6.89012791      -6.01323400
O       -0.83600663      -7.03592696      -3.99074987
N       -0.85052232      -5.79263343      -3.36312081
C       -1.95190908      -5.13988240      -3.56725821
C       -2.17032624      -3.79431472      -2.99219249
C       -1.32689527      -3.04163062      -2.19573143
C       -1.79252156      -1.79252156      -1.79252156
C       -3.06197533      -1.32672176      -2.18250864
C       -3.89622445      -2.11150042      -2.99058638
C       -3.43982289      -3.35541522      -3.39485333
C       -4.05598058      -4.37667898      -4.21262661
C       -5.29768559      -4.39616579      -4.83046373
C       -5.65403231      -5.52729857      -5.57214077
C       -4.77102834      -6.61417381      -5.68439845
Br      -5.29235245      -8.12702735      -6.69539415
C       -3.52018038      -6.60098442      -5.06625720
C       -3.17945175      -5.47562678      -4.33606703
H        0.04261994      -7.38138197      -3.74543194
H       -0.35249431      -3.41912132      -1.90669338
H       -3.40716290      -0.34740607      -1.85704454
H       -4.87336900      -1.74229756      -3.28501874
H       -5.98538759      -3.56062677      -4.74755413
H       -6.62474856      -5.55811818      -6.06248895
H       -2.84612885      -7.44325669      -5.15750618
O       -7.15539558       0.96614722       3.74114065
N       -5.88650892       0.95278358       3.16698405
C       -5.19697149       2.01409786       3.44798035
C       -3.82275220       2.20130400       2.93277724
C       -3.07232353       1.36032994       2.13160385
C       -1.79252156       1.79252156       1.79252156
C       -1.29551222       3.02797789       2.24771562
C       -2.07870046       3.86049452       3.05911627
C       -3.35250050       3.43664781       3.40094314
C       -4.37868957       4.05817078       4.20842582
C       -4.37337550       5.27285947       4.87808014
C       -5.51375612       5.63928013       5.60043539
C       -6.63407171       4.79270370       5.64282518
Br      -8.15655767       5.32452068       6.63369561
C       -6.64660716       3.56987855       4.97093629
C       -5.51237149       3.21947881       4.25929525
H       -7.53110375       0.12047628       3.43261395
H       -3.47425182       0.41254955       1.79150765
H       -0.29278100       3.34765824       1.97117427
H       -1.68505817       4.81101650       3.40461062
H       -3.51133440       5.93169200       4.85054207
H       -5.52511578       6.58879810       6.13144181
H       -7.51410573       2.92330674       5.00947925
O        7.28924132      -1.16021447       3.41322766
N        5.99331948      -1.10737309       2.90558399
C        5.26617469      -2.11354599       3.27932902
C        3.85806151      -2.25191344       2.84685849
C        3.10954752      -1.41381964       2.04089016
C        1.79252156      -1.79252156       1.79252156
C        1.25785590      -2.97383643       2.33951340
C        2.04003197      -3.80475459       3.15352469
C        3.35079113      -3.43390469       3.40539563
C        4.38597811      -4.06788219       4.19142587
C        4.35438787      -5.24421555       4.92571169
C        5.51199252      -5.63444265       5.60703648
C        6.67523022      -4.84917222       5.54519815
Br       8.21995149      -5.41128268       6.48353978
C        6.71432029      -3.66523484       4.80786687
C        5.56259909      -3.29076444       4.13778203
H        7.69079142      -0.35338196       3.04002060
H        3.54080210      -0.50822912       1.62927779
H        0.22634635      -3.25222297       2.13304418
H        1.61719260      -4.71325172       3.57024098
H        3.45921295      -5.85559173       4.97876379
H        5.50317955      -6.55443461       6.18774153
H        7.61490343      -3.06581327       4.76617502
C       -0.00445707       0.01189536      -1.78238275
H       -0.66409135       0.67374010      -2.43557963
H        0.65740317      -0.63156657      -2.45157240
C       -0.90989263      -0.90692880      -0.91072765
C        0.90977584       0.90977584      -0.90977584
C       -0.00465871       1.77757030       0.00794375
H       -0.66225468       2.44313916      -0.64384735
H        0.64322798       2.43503045       0.67728295
C       -1.78241447       0.00034974      -0.00472694
H       -2.45427497      -0.65498947       0.64260836
H       -2.43311707       0.67328779      -0.65473579
C       -0.91132561       0.90220522       0.91563759
C       -0.01476271      -0.02253852       1.78660255
H       -0.67934791      -0.69751639       2.42135241
H        0.63392994       0.61504881       2.47327442
C        0.01484550      -1.77751727      -0.01636693
H        0.67870853      -2.42144646      -0.68295456
H       -0.62264859      -2.45592969       0.64226336
C        1.78714474       0.01002794       0.00389507
H        2.44202412       0.67113390       0.66197326
H        2.45385902      -0.65136977      -0.64189061
C        0.91606151      -0.90478549       0.90901405
