93
Properties=species:S:1:pos:R:3 pbc="F F F"
C        0.00000000       0.00000000       0.00000000
O       -0.47434501       5.37372906      -4.23358734
N       -0.37902233       4.28341527      -3.37217154
C        0.83470755       3.84429841      -3.25033167
C        1.15461643       2.68811125      -2.38439369
C        0.30548636       1.92428216      -1.60477673
C        0.88261754       0.88261754      -0.88261754
C        2.26486265       0.62678385      -0.94984715
C        3.10210316       1.41773349      -1.74876253
C        2.53495850       2.45609336      -2.46932751
C        3.12402898       3.42896261      -3.36258250
C        4.44427624       3.59708247      -3.75324433
C        4.74876222       4.63570371      -4.63929363
C        3.73707984       5.48474834      -5.11806034
Br       4.19133068       6.87979224      -6.31393896
C        2.40689279       5.32088695      -4.72993019
C        2.11883964       4.28908744      -3.85350640
H       -1.42990116       5.56889457      -4.21548849
H       -0.75674808       2.13816113      -1.56718389
H        2.69627286      -0.19237393      -0.37800250
H        4.16668833       1.21149831      -1.79278658
H        5.23127492       2.94561983      -3.38696166
H        5.77975407       4.78092588      -4.95496367
H        1.63362579       5.98022388      -5.10332997
O       -1.70134183      -6.58949761      -0.84213195
N       -1.35631626      -5.25125723      -0.66899100
C       -1.95678033      -4.46535155      -1.50720574
C       -1.72670884      -3.00387548      -1.49653705
C       -0.90903348      -2.25831879      -0.66719298
C       -0.88261754      -0.88261754      -0.88261754
C       -1.65420862      -0.28860949      -1.89867554
C       -2.47457962      -1.06925796      -2.72476160
C       -2.50633023      -2.43832781      -2.51572134
C       -3.23978008      -3.48792187      -3.18787214
C       -4.13208678      -3.41519460      -4.24732166
C       -4.71283823      -4.60039386      -4.71052748
C       -4.39590910      -5.83146384      -4.11251559
Br      -5.20540595      -7.41201534      -4.76764059
C       -3.49859848      -5.91206753      -3.04704392
C       -2.93039486      -4.73228695      -2.59875167
H       -1.17020841      -7.03097861      -0.15329489
H       -0.32244920      -2.73577668       0.10962894
H       -1.61919915       0.78829082      -2.05099309
H       -3.06554392      -0.60042868      -3.50500063
H       -4.38235209      -2.46771815      -4.71378617
H       -5.41503871      -4.56003704      -5.54056787
H       -3.26051741      -6.86498547      -2.59167677
O       -6.21385453       0.01861790       2.90049895
N       -4.95136193       0.01291071       2.31229184
C       -4.27072202       1.08492139       2.57369421
C       -2.90451008       1.28159342       2.04101787
C       -2.15362743       0.44005996       1.24085786
C       -0.88261754       0.88261754       0.88261754
C       -0.39450280       2.12856641       1.31842444
C       -1.17793206       2.96139417       2.12927295
C       -2.44300410       2.52727808       2.49009719
C       -3.46707435       3.14639192       3.30210782
C       -3.46797463       4.36851925       3.95810916
C       -4.60429982       4.73033527       4.68912448
C       -5.71448251       3.87188164       4.75352437
Br      -7.23173906       4.39784356       5.75547927
C       -5.72073604       2.64151342       4.09546046
C       -4.59061606       2.29576848       3.37504894
H       -6.58343593      -0.83459573       2.60564171
H       -2.54862836      -0.51589701       0.91586559
H        0.60143197       2.45624867       1.02708473
H       -0.79118689       3.92006095       2.45972539
H       -2.61375743       5.03654704       3.91355193
H       -4.62043142       5.68558026       5.20963194
H       -6.58042554       1.98580790       4.15094622
O        2.31946846      -0.37085094       6.44265198
N        1.84633624      -0.29538291       5.13484534
C        2.26596069      -1.27147599       4.39190094
C        1.88292372      -1.37743345       2.96676420
C        1.07530645      -0.54042075       2.21881805
C        0.88261754      -0.88261754       0.88261754
C        1.48564820      -2.02719181       0.32865364
C        2.29981633      -2.85800714       1.11077570
C        2.49534569      -2.52409633       2.44093736
C        3.26343892      -3.16983383       3.48230135
C        4.03139961      -4.32408902       3.43911441
C        4.67806513      -4.73703968       4.60865475
C        4.54852084      -3.99615914       5.79520854
Br       5.43797849      -4.59031928       7.35676411
C        3.77834492      -2.83375560       5.84560940
C        3.14436167      -2.43561601       4.68145580
H        1.92366884       0.42116927       6.85198234
H        0.62028866       0.33671199       2.66502027
H        1.32278861      -2.27698668      -0.71787387
H        2.75955017      -3.73830080       0.67312227
H        4.13548267      -4.90200791       2.52636583
H        5.28386894      -5.64057622       4.59119847
H        3.68347798      -2.26919708       6.76450459
