122
Properties=species:S:1:pos:R:3 pbc="F F F"
O        0.43555901       6.28363308      -5.14349137
N        0.53088169       5.19331929      -4.28207557
C        1.74461157       4.75420243      -4.16023569
C        2.06452046       3.59801528      -3.29429771
C        1.21539038       2.83418619      -2.51468076
C        1.79252156       1.79252156      -1.79252156
C        3.17476667       1.53668788      -1.85975117
C        4.01200719       2.32763751      -2.65866655
C        3.44486253       3.36599738      -3.37923153
C        4.03393300       4.33886664      -4.27248653
C        5.35418027       4.50698649      -4.66314835
C        5.65866625       5.54560774      -5.54919766
C        4.64698387       6.39465236      -6.02796436
C        3.31679681       6.23079098      -5.63983421
C        3.02874367       5.19899146      -4.76341043
H       -0.51999713       6.47879860      -5.12539251
H        0.15315594       3.04806516      -2.47708791
H        3.60617689       0.71753009      -1.28790652
H        5.07659236       2.12140234      -2.70269061
H        6.14117895       3.85552385      -4.29686568
H        6.68965810       5.69082990      -5.86486770
H        2.54352982       6.89012791      -6.01323400
C        4.99257138       7.45598172      -6.93777164
C        5.28200092       8.34484505      -7.69973523
Br       5.74998401       9.78206189      -8.93176591
O       -0.77168464      -6.96476598      -4.12623283
N       -0.79920268      -5.73595520      -3.47111867
C       -1.91868459      -5.10343887      -3.63692624
C       -2.15337899      -3.77577183      -3.02768263
C       -1.30902412      -3.02202898      -2.23320422
C       -1.79252156      -1.79252156      -1.79252156
C       -3.08005515      -1.34656301      -2.14458757
C       -3.91479544      -2.13193107      -2.95158474
C       -3.44065396      -3.35642769      -3.39300979
C       -4.05250901      -4.37313941      -4.21963775
C       -5.30685082      -4.40669685      -4.81076744
C       -5.65496255      -5.52912943      -5.56937965
C       -4.75136526      -6.59354808      -5.72468725
C       -3.48774202      -6.56608960      -5.13359037
C       -3.15536987      -5.44952617      -4.38624952
H        0.11941040      -7.29594539      -3.90765899
H       -0.32054190      -3.38405770      -1.97370942
H       -3.43905696      -0.38237819      -1.79017835
H       -4.90595997      -1.77813024      -3.21659509
H       -6.01045463      -3.58854457      -4.69456928
H       -6.63538318      -5.57078263      -6.03918988
H       -2.79782086      -7.39109326      -5.25797761
C       -5.13990543      -7.73609150      -6.51032780
C       -5.46530782      -8.69297161      -7.16830177
Br      -5.99145596     -10.24016582      -8.23219002
O       -7.10905741       0.91187579       3.84175025
N       -5.84953640       0.90955628       3.24718388
C       -5.17303185       1.98629996       3.49971789
C       -3.81054035       2.18715951       2.95913358
C       -3.05944661       1.34537846       2.15943226
C       -1.79252156       1.79252156       1.79252156
C       -1.30853935       3.04311200       2.21955437
C       -2.09208079       3.87607756       3.03015290
C       -3.35309791       3.43741880       3.39957474
C       -4.37618439       4.05546747       4.21363430
C       -4.37997272       5.28088610       4.86345630
C       -5.51441503       5.64066628       5.59839033
C       -6.61989042       4.77695903       5.67275114
C       -6.62322433       3.54325318       5.02094449
C       -5.49501507       3.19956612       4.29656436
H       -7.47578993       0.05532356       3.55308049
H       -3.45122898       0.38580439       1.84127564
H       -0.31576218       3.37433395       1.92151737
H       -1.70854015       4.83834740       3.35379775
H       -3.52939034       5.95298136       4.81119678
H       -5.53276444       6.59844534       6.11414592
H       -7.47928622       2.88350767       5.08409783
C       -7.77235072       5.17513428       6.43883973
C       -8.73753622       5.50860606       7.08043892
Br     -10.29815955       6.04780171       8.11785054
O        7.27682162      -1.13922764       3.44663419
N        5.98340704      -1.09065453       2.93221499
C        5.25974888      -2.10278846       3.29651235
C        3.85478225      -2.24643845       2.85561274
C        3.10609110      -1.40803353       2.05013269
C        1.79252156      -1.79252156       1.79252156
C        1.26135231      -2.97969294       2.33016047
C        2.04362167      -3.81078352       3.14390606
C        3.35094845      -3.43420044       3.40494255
C        4.38529761      -4.06682909       4.19315947
C        4.35614431      -5.24730941       4.92086139
C        5.51214501      -5.63495809       5.60636853
C        6.67139539      -4.84305478       5.55515042
C        6.70802330      -3.65491330       4.82448540
C        5.55793087      -3.28305027       4.15016441
H        7.67598051      -0.32819968       3.08001379
H        3.53462284      -0.49787939       1.64580678
H        0.23251525      -3.26254654       2.11655171
H        1.62349303      -4.72382635       3.55336592
H        3.46404678      -5.86381959       4.96570210
H        5.50520254      -6.55814213       6.18201103
H        7.60553248      -3.05039004       4.79096921
C        7.84502021      -5.26820301       6.27310151
C        8.82793100      -5.62426466       6.87438554
Br      10.41721461      -6.19998622       7.84661097
C       -0.00445707       0.01189536      -1.78238275
H       -0.66409135       0.67374010      -2.43557963
H        0.65740317      -0.63156657      -2.45157240
C       -0.90989263      -0.90692880      -0.91072765
C        0.90977584       0.90977584      -0.90977584
C       -0.00465871       1.77757030       0.00794375
H       -0.66225468       2.44313916      -0.64384735
H        0.64322798       2.43503045       0.67728295
C       -1.78241447       0.00034974      -0.00472694
H       -2.45427497      -0.65498947       0.64260836
H       -2.43311707       0.67328779      -0.65473579
C       -0.91132561       0.90220522       0.91563759
C       -0.01476271      -0.02253852       1.78660255
H       -0.67934791      -0.69751639       2.42135241
H        0.63392994       0.61504881       2.47327442
C        0.01484550      -1.77751727      -0.01636693
H        0.67870853      -2.42144646      -0.68295456
H       -0.62264859      -2.45592969       0.64226336
C        1.78714474       0.01002794       0.00389507
H        2.44202412       0.67113390       0.66197326
H        2.45385902      -0.65136977      -0.64189061
C        0.91606151      -0.90478549       0.90901405
