98
Properties=species:S:1:pos:R:3 pbc="F F F"
C        2.43082577      -0.08527555      -3.38150336
C        2.44590699       1.32703775      -2.86188557
C        1.78641744       1.78641744      -1.78641744
C        1.88743647       3.21842264      -1.37071896
O        1.40812495       3.61522458      -0.31270288
C        2.57840299       4.17114015      -2.28042818
C        3.24586667       3.70893466      -3.34992602
C        3.29750998       2.25150527      -3.66049322
O        4.00391516       1.80621643      -4.56032088
C        2.48187085       5.62832586      -1.91701503
H        1.73748267      -0.74356378      -2.85381050
H        3.42826669      -0.53023029      -3.29922148
H        2.13201031      -0.09787951      -4.43578112
H        1.78626995       5.81840791      -1.09414550
H        2.11577152       6.21773238      -2.76477221
H        3.46010725       6.01298113      -1.61024821
C        3.95800784       4.57232853      -4.25601982
C        4.55442607       5.29542090      -5.01487338
Br       5.51878391       6.46460010      -6.24187539
C       -1.60177729      -0.29118280      -3.83409349
C       -2.07859822      -1.49272339      -3.06350869
C       -1.78641744      -1.78641744      -1.78641744
C       -2.32875926      -3.01577220      -1.13204661
O       -2.18770132      -3.21861365       0.07026257
C       -3.04239050      -4.00996531      -1.97761552
C       -3.34259488      -3.71048538      -3.25164708
C       -2.95930701      -2.39982438      -3.85037707
O       -3.33461875      -2.06548431      -4.97034942
C       -3.39371621      -5.31596516      -1.31753038
H       -0.88417570       0.32693480      -3.29048849
H       -2.44916725       0.35042171      -4.09851235
H       -1.10477650      -0.60671460      -4.75842083
H       -2.94843560      -5.42617734      -0.32421043
H       -3.02721362      -6.16221920      -1.90884329
H       -4.47847768      -5.40627600      -1.19858291
C       -4.05431111      -4.61499517      -4.11704991
C       -4.65037344      -5.37252212      -4.84182479
Br      -5.61415583      -6.59737912      -6.01372446
C       -1.73869086       3.77942453       0.20893820
C       -2.13297312       3.04179704       1.46006014
C       -1.78641744       1.78641744       1.78641744
C       -2.24305134       1.16626940       3.06725733
O       -1.81629540       0.07803813       3.44171888
C       -3.24770330       1.89563505       3.88663297
C       -3.58554764       3.15463715       3.56454256
C       -2.98524492       3.84002018       2.38424337
O       -3.19091524       5.02772958       2.15180765
C       -3.82217871       1.14644724       5.05858579
H       -1.19110570       3.16793273      -0.51130904
H       -1.10316798       4.63596375       0.45812616
H       -2.63040785       4.14924315      -0.30973908
H       -3.52799816       0.09279372       5.07803147
H       -4.91719340       1.15418294       5.02689977
H       -3.48877440       1.59376693       6.00079525
C       -4.53034988       3.92696979       4.32903652
C       -5.32162176       4.57379838       4.96930021
Br      -6.60104146       5.61966550       6.00455244
C        1.66781572      -3.80872482       0.25051305
C        2.10157709      -3.05468136       1.47857186
C        1.78641744      -1.78641744       1.78641744
C        2.28079033      -1.15047389       3.04531386
O        1.88313823      -0.04673538       3.40617879
C        3.28714053      -1.88359476       3.85923603
C        3.59360665      -3.15522087       3.55589982
C        2.95635632      -3.85151058       2.40164156
O        3.13390371      -5.04745413       2.18909463
C        3.89966193      -1.12317126       5.00437855
H        1.11802190      -3.20065644      -0.47094895
H        1.02068930      -4.64726235       0.52930624
H        2.54148880      -4.20650761      -0.27808448
H        3.62672494      -0.06364548       5.00845294
H        4.99345541      -1.15351124       4.95130946
H        3.57650173      -1.54507709       5.96175777
C        4.53818335      -3.93117032       4.31700251
C        5.32926634      -4.58102799       4.95442602
Br       6.60838061      -5.63179287       5.98508592
C       -0.00445707       0.01189536      -1.78238275
H       -0.66409135       0.67374010      -2.43557963
H        0.65740317      -0.63156657      -2.45157240
C       -0.90989263      -0.90692880      -0.91072765
C        0.90977584       0.90977584      -0.90977584
C       -0.00465871       1.77757030       0.00794375
H       -0.66225468       2.44313916      -0.64384735
H        0.64322798       2.43503045       0.67728295
C       -1.78241447       0.00034974      -0.00472694
H       -2.45427497      -0.65498947       0.64260836
H       -2.43311707       0.67328779      -0.65473579
C       -0.91132561       0.90220522       0.91563759
C       -0.01476271      -0.02253852       1.78660255
H       -0.67934791      -0.69751639       2.42135241
H        0.63392994       0.61504881       2.47327442
C        0.01484550      -1.77751727      -0.01636693
H        0.67870853      -2.42144646      -0.68295456
H       -0.62264859      -2.45592969       0.64226336
C        1.78714474       0.01002794       0.00389507
H        2.44202412       0.67113390       0.66197326
H        2.45385902      -0.65136977      -0.64189061
C        0.91606151      -0.90478549       0.90901405
