166
Properties=species:S:1:pos:R:3 pbc="F F F"
C        1.79134966       1.79134966      -1.79134966
C        3.17683934       1.71872444      -1.67662563
C        3.98384968       2.52480599      -2.48375158
C        3.40911844       3.40629310      -3.41217312
C        4.28389078       4.25412451      -4.30455857
S        4.49388195       3.53588121      -5.95892107
C        5.52083563       2.17733369      -5.57642184
N        6.65414846       2.31014972      -4.92022956
N        7.29687775       1.09484531      -4.75289319
C        6.61515613       0.10468964      -5.28798954
S        7.16359465      -1.55131986      -5.23715053
C        8.87849879      -1.32241689      -5.79135469
C        9.62113543      -2.63628668      -5.84830512
C       10.05496594      -3.26014143      -4.66801407
C       10.73262610      -4.48023916      -4.71442959
C       10.98495816      -5.08404635      -5.94385660
C       10.56303032      -4.48115693      -7.12684044
C        9.87983334      -3.26232922      -7.07881881
S        5.14539235       0.57052744      -6.03115479
C        2.01074167       3.46394294      -3.51790776
C        1.20362093       2.66085727      -2.70854149
H        3.64079509       1.03956178      -0.96644744
H        5.06658346       2.45472581      -2.38696530
H        5.25913158       4.43508725      -3.83841438
H        3.81998275       5.24059169      -4.42239480
H        9.41178550      -0.63910112      -5.12142251
H        8.86766226      -0.85633456      -6.78396258
H        9.85948780      -2.79891786      -3.70133091
H       11.05569975      -4.94898336      -3.78859517
H       10.75778924      -4.95090606      -8.08755109
H        9.55199213      -2.80663194      -8.01170409
H        1.53970070       4.13313766      -4.23573110
H        0.12212235       2.71857570      -2.80294738
C       11.68564837      -6.34117275      -5.99146393
C       12.27247642      -7.39401610      -6.03133507
Br      13.22132775      -9.09637476      -6.09580332
C       -1.79134966      -1.79134966      -1.79134966
C       -2.90129801      -1.24293265      -2.42795874
C       -3.70779905      -2.04925699      -3.23535121
C       -3.40672693      -3.40840897      -3.41244876
C       -4.26228308      -4.27054876      -4.30974202
S       -3.54922444      -4.47206126      -5.96739852
C       -3.79979612      -2.86756231      -6.60723274
N       -4.98089355      -2.28658144      -6.61705275
N       -4.92925238      -1.02632882      -7.18903505
C       -3.71121153      -0.71727634      -7.57934744
S       -3.32307993       0.80769318      -8.33403856
C       -4.64244254       0.87605837      -9.58105241
C       -4.55081881       2.13220629     -10.41454136
C       -4.94864444       3.36916783      -9.88336197
C       -4.85597267       4.53522941     -10.64607327
C       -4.36759237       4.47165926     -11.94883528
C       -3.96779090       3.25384925     -12.49477220
C       -4.05587525       2.08789945     -11.72834712
S       -2.53821998      -1.92755132      -7.28130327
C       -2.28161288      -3.94425012      -2.76672936
C       -1.47724794      -3.13922141      -1.95655033
H       -3.14861796      -0.19177684      -2.30640951
H       -4.57063484      -1.60635850      -3.73128124
H       -5.28191744      -3.87427858      -4.37643719
H       -4.35616210      -5.26632345      -3.86048369
H       -5.62709405       0.83555722      -9.10257007
H       -4.56195814      -0.00692607     -10.22640607
H       -5.32809894       3.43092595      -8.86472787
H       -5.16471885       5.48361479     -10.21420749
H       -3.58527626       3.20174817     -13.51090617
H       -3.73446012       1.14489973     -12.16750390
H       -2.02114889      -4.99351471      -2.89390585
H       -0.60984549      -3.57060754      -1.46319240
C       -4.27415172       5.67398775     -12.73577558
C       -4.19589518       6.68093787     -13.39483808
Br      -4.06936097       8.30909104     -14.46048639
C       -1.79134966       1.79134966       1.79134966
C       -1.53061460       1.88601340       3.15556141
C       -2.33672960       2.69325323       3.96242442
C       -3.40678157       3.41247036       3.40833274
C       -4.25762328       4.30789961       4.27705098
S       -3.76292749       6.05189314       4.17386360
C       -2.24613267       5.99294015       5.03551835
N       -2.14112028       5.49425380       6.24915366
N       -0.84372766       5.57368677       6.72720181
C       -0.03328273       6.12515578       5.84939679
S        1.66835205       6.36050967       6.15726769
C        1.57847507       7.12140542       7.80450623
C        2.95302545       7.44764659       8.33853273
C        3.78857467       6.42881138       8.82260188
C        5.06445264       6.72370268       9.30756649
C        5.51288049       8.04226123       9.31538766
C        4.69901618       9.06806134       8.83966867
C        3.42392348       8.77095955       8.34928685
S       -0.78051359       6.58633550       4.38022548
C       -3.65313691       3.30900707       2.03044838
C       -2.84965653       2.49917778       1.22418538
H       -0.70426400       1.33995275       3.60258755
H       -2.11886730       2.76189328       5.02751400
H       -4.24681250       3.96717398       5.31864673
H       -5.30092995       4.23402913       3.94801016
H        1.07004164       6.45463440       8.50951413
H        0.97750275       8.03619570       7.73659733
H        3.44964306       5.39415520       8.81738872
H        5.69747625       5.91947686       9.67331095
H        5.04708290      10.09781545       8.84370173
H        2.80210519       9.58305508       7.97611439
H       -4.47167960       3.86280479       1.57408506
H       -3.05488723       2.42992110       0.15883711
C        6.82781870       8.34624178       9.81751646
C        7.92907945       8.60082549      10.23804934
Br       9.70972493       9.01246582      10.91801543
C        1.79134966      -1.79134966       1.79134966
C        1.57670770      -1.82917169       3.16631002
C        2.38281055      -2.63638415       3.97321254
C        3.40663990      -3.41240941       3.40853535
C        4.25657688      -4.30716250       4.27883449
S        3.69825950      -6.03477049       4.25565423
C        2.21638850      -5.89144616       5.16675651
N        2.17245398      -5.34748492       6.36458884
N        0.89111472      -5.36357663       6.88992490
C        0.03097928      -5.91568178       6.06117425
S       -1.66562769      -6.07887068       6.43618232
C       -1.54304212      -6.78487605       8.10560265
C       -2.90799598      -7.04275034       8.69839952
C       -3.68973444      -5.97834366       9.17422936
C       -4.95681524      -6.21015803       9.71347375
C       -5.45016524      -7.51067347       9.78426017
C       -4.69002608      -8.58096681       9.31777311
C       -3.42384764      -8.34710450       8.77306606
S        0.70844326      -6.45414441       4.58448689
C        3.60673390      -3.36575632       2.02010214
C        2.80337382      -2.55603154       1.21361432
H        0.78641565      -1.23856525       3.62182340
H        2.20113548      -2.66013832       5.04700078
H        4.29505785      -3.93032285       5.30725250
H        5.28931247      -4.28231854       3.91133823
H       -0.98675222      -6.11275090       8.76810821
H       -0.97701248      -7.72248931       8.04981345
H       -3.31550360      -4.95734819       9.12005626
H       -5.54798427      -5.37148151      10.07181431
H       -5.07325293      -9.59677883       9.37090837
H       -2.84441015      -9.19349579       8.40797865
H        4.38862353      -3.96413348       1.55581245
H        2.97244517      -2.53121629       0.13998396
C       -6.75595576      -7.74956552      10.34232979
C       -7.84955533      -7.94963761      10.80971310
Br      -9.61781332      -8.27313725      11.56543239
C       -0.00445707       0.01189536      -1.78238275
H       -0.66409135       0.67374010      -2.43557963
H        0.65740317      -0.63156657      -2.45157240
C       -0.90989263      -0.90692880      -0.91072765
C        0.90977584       0.90977584      -0.90977584
C       -0.00465871       1.77757030       0.00794375
H       -0.66225468       2.44313916      -0.64384735
H        0.64322798       2.43503045       0.67728295
C       -1.78241447       0.00034974      -0.00472694
H       -2.45427497      -0.65498947       0.64260836
H       -2.43311707       0.67328779      -0.65473579
C       -0.91132561       0.90220522       0.91563759
C       -0.01476271      -0.02253852       1.78660255
H       -0.67934791      -0.69751639       2.42135241
H        0.63392994       0.61504881       2.47327442
C        0.01484550      -1.77751727      -0.01636693
H        0.67870853      -2.42144646      -0.68295456
H       -0.62264859      -2.45592969       0.64226336
C        1.78714474       0.01002794       0.00389507
H        2.44202412       0.67113390       0.66197326
H        2.45385902      -0.65136977      -0.64189061
C        0.91606151      -0.90478549       0.90901405
