178
Properties=species:S:1:pos:R:3 pbc="F F F"
C        1.79132317       1.79132317      -1.79132317
C        2.34882289       1.27059903      -2.95512555
C        3.15744939       2.08081697      -3.75765366
C        3.41998980       3.41203314      -3.40074239
C        2.85665073       3.91646371      -2.22670319
C        2.03907088       3.11104684      -1.42583672
N        4.26925038       4.14836910      -4.25227876
C        4.62670807       5.47392938      -4.15305713
O        4.12865813       6.26826793      -3.35956150
N        5.61979896       5.88100104      -5.04945555
C        6.59053205       4.97682097      -5.70052507
C        7.13171692       5.56559873      -7.01832715
N        7.66473837       6.91683005      -6.80770583
C        6.67487476       7.83959838      -6.22806581
C        6.08919150       7.27607684      -4.91808421
C        8.93940353       6.97869073      -6.25285259
N        9.36694053       8.14156429      -5.73068077
C       10.62636215       8.19183014      -5.24266901
C       11.48081999       7.12086549      -5.24209197
C       10.96549149       5.97049402      -5.77790267
N        9.71530727       5.87835719      -6.28268307
H        2.16452094       0.23884917      -3.24484705
H        3.58684162       1.65105739      -4.65889614
H        3.03217866       4.93750589      -1.90257856
H        1.60733635       3.52823036      -0.51951604
H        4.51761000       3.68636997      -5.10896788
H        6.15921395       3.99734426      -5.91366679
H        7.40177410       4.81640564      -4.97918750
H        7.86007312       4.88966618      -7.48198784
H        6.30170047       5.63833398      -7.73306418
H        7.07112229       8.84979408      -6.07258945
H        5.85857428       7.95030465      -6.95270883
H        6.84542245       7.28291750      -4.12358404
H        5.26654848       7.92288181      -4.59295059
H       10.92279364       9.15827018      -4.84719688
H       11.54681958       5.05463427      -5.83156936
C       12.81982943       7.19673504      -4.71778527
C       13.94124984       7.26027579      -4.27867840
Br      15.75449180       7.36301581      -3.56867974
C       -1.79132317      -1.79132317      -1.79132317
C       -2.09168801      -3.09024793      -1.39261152
C       -2.89705133      -3.89449082      -2.20437787
C       -3.40148601      -3.41046599      -3.42081333
C       -3.08559496      -2.10639478      -3.80782790
C       -2.28740389      -1.29533966      -2.99321091
N       -4.18095680      -4.29867636      -4.19026509
C       -4.83068227      -4.04587027      -5.37714204
O       -4.94276229      -2.93175609      -5.88196918
N       -5.38564369      -5.17250233      -5.99210953
C       -4.94740884      -6.56397356      -5.75649569
C       -6.06234925      -7.58027156      -6.07302200
N       -6.59199820      -7.37142245      -7.42585359
C       -7.09834220      -6.00553697      -7.63865979
C       -6.01962315      -4.95464184      -7.30908755
C       -5.81926025      -7.89246365      -8.45922296
N       -6.04678161      -7.47539849      -9.71700549
C       -5.31857017      -8.03187247     -10.71041866
C       -4.35734510      -8.98542270     -10.50100966
C       -4.17643704      -9.34549805      -9.19195309
N       -4.88685103      -8.81999932      -8.16949718
H       -1.70352940      -3.48709453      -0.45759324
H       -3.11366718      -4.90754564      -1.87558234
H       -3.44581558      -1.68521557      -4.74123196
H       -2.06006142      -0.28161254      -3.31340880
H       -4.40613875      -5.16754516      -3.73926394
H       -4.62073755      -6.72212419      -4.72736326
H       -4.07155582      -6.72919133      -6.39662008
H       -5.71771336      -8.60778126      -5.90623253
H       -6.88439287      -7.42686386      -5.36184191
H       -7.49645019      -5.84908294      -8.64797269
H       -7.94676693      -5.85537981      -6.95944101
H       -5.21655363      -4.97954195      -8.05582841
H       -6.47414258      -3.95836927      -7.34986902
H       -5.55416675      -7.66836861     -11.70572534
H       -3.44195960     -10.09061032      -8.90045328
C       -3.59347282      -9.56616400     -11.57471292
C       -2.95372980     -10.05253485     -12.47393940
Br      -1.91931943     -10.83895536     -13.92791256
C       -1.79132317       1.79132317       1.79132317
C       -2.86680023       1.23261702       2.47513021
C       -3.67268080       2.04427659       3.27896262
C       -3.41477939       3.41806938       3.39991656
C       -2.33457221       3.96284998       2.70239544
C       -1.52011781       3.15158998       1.90424666
N       -4.29497588       4.16672988       4.20819249
C       -4.22075321       5.50304032       4.52990104
O       -3.26606791       6.22806344       4.26235622
N       -5.33306913       6.00296169       5.21422473
C       -6.68132740       5.39858953       5.18796116
C       -7.50556255       5.77512166       6.43495860
N       -7.53754574       7.23067875       6.62104976
C       -6.19459706       7.82520601       6.72273588
C       -5.32721159       7.45201143       5.50412952
C       -8.43850302       7.91857292       5.81387091
N       -8.30860250       9.25013256       5.68045053
C       -9.22460131       9.90415667       4.93210331
C      -10.26617316       9.28134108       4.29626321
C      -10.32019927       7.92379066       4.46989825
N       -9.42991466       7.23174237       5.21469051
H       -3.08865533       0.17168297       2.38787886
H       -4.51051904       1.58725168       3.79902443
H       -2.09469884       5.02012222       2.75744205
H       -0.68162051       3.59793918       1.37552307
H       -4.96413028       3.62408632       4.72473124
H       -6.64137163       4.31027482       5.11857855
H       -7.16771890       5.75752671       4.27212162
H       -8.50705801       5.33047097       6.39419816
H       -7.02338032       5.33315287       7.31656545
H       -6.21727630       8.91201290       6.86421663
H       -5.71822144       7.41944541       7.62392091
H       -5.69249538       7.95758707       4.60184154
H       -4.30273059       7.79808023       5.68157005
H       -9.07915870      10.97811542       4.87098658
H      -11.09927045       7.31987227       4.01388048
C      -11.23200830       9.99800742       3.50433402
C      -12.04089523      10.59821548       2.84109333
Br     -13.34879699      11.56870114       1.76868922
C        1.79132317      -1.79132317       1.79132317
C        1.81175089      -3.16867237       1.59412420
C        2.61844949      -3.97196704       2.40550348
C        3.40362387      -3.40724970       3.42189176
C        3.36677672      -2.02387045       3.60917047
C        2.56756977      -1.21569868       2.79268600
N        4.16462551      -4.29387898       4.21139376
C        5.05015640      -3.98468856       5.21884962
O        5.42134990      -2.84557042       5.48956725
N        5.52850010      -5.08575717       5.93599829
C        4.84696021      -6.39379195       6.02712593
C        5.83189257      -7.53515425       6.34859600
N        6.62421881      -7.22142995       7.54362548
C        7.36385428      -5.95411858       7.42456609
C        6.41703147      -4.78773077       7.07859030
C        5.98165796      -7.42889076       8.76039813
N        6.49511477      -6.87255610       9.87151472
C        5.88311811      -7.12864463      11.04909856
C        4.76537901      -7.91223878      11.16615966
C        4.29660647      -8.42953822       9.98774349
N        4.88129468      -8.20474945       8.79030341
H        1.20401588      -3.62675638       0.81744491
H        2.61400164      -5.04570999       2.23708353
H        3.95080604      -1.53732035       4.38413672
H        2.56013861      -0.14066946       2.95427469
H        4.16836283      -5.24783311       3.89675191
H        4.31839079      -6.64560206       5.10623215
H        4.08724377      -6.29708793       6.81303553
H        5.30950218      -8.49612807       6.42609689
H        6.52461868      -7.64442900       5.50405096
H        7.95795207      -5.71997438       8.31557937
H        8.08751703      -6.06645216       6.60761857
H        5.76887375      -4.55163383       7.93141641
H        7.01847342      -3.89636241       6.86754504
H        6.34851396      -6.66599007      11.91375667
H        3.41611180      -9.06444468       9.95246673
C        4.12962031      -8.17312562      12.43160382
C        3.59717239      -8.39161834      13.49141331
Br       2.73624914      -8.74490260      15.20503561
C       -0.00445707       0.01189536      -1.78238275
H       -0.66409135       0.67374010      -2.43557963
H        0.65740317      -0.63156657      -2.45157240
C       -0.90989263      -0.90692880      -0.91072765
C        0.90977584       0.90977584      -0.90977584
C       -0.00465871       1.77757030       0.00794375
H       -0.66225468       2.44313916      -0.64384735
H        0.64322798       2.43503045       0.67728295
C       -1.78241447       0.00034974      -0.00472694
H       -2.45427497      -0.65498947       0.64260836
H       -2.43311707       0.67328779      -0.65473579
C       -0.91132561       0.90220522       0.91563759
C       -0.01476271      -0.02253852       1.78660255
H       -0.67934791      -0.69751639       2.42135241
H        0.63392994       0.61504881       2.47327442
C        0.01484550      -1.77751727      -0.01636693
H        0.67870853      -2.42144646      -0.68295456
H       -0.62264859      -2.45592969       0.64226336
C        1.78714474       0.01002794       0.00389507
H        2.44202412       0.67113390       0.66197326
H        2.45385902      -0.65136977      -0.64189061
C        0.91606151      -0.90478549       0.90901405
