170
Properties=species:S:1:pos:R:3 pbc="F F F"
C        1.79132317       1.79132317      -1.79132317
C        2.34882289       1.27059903      -2.95512555
C        3.15744939       2.08081697      -3.75765366
C        3.41998980       3.41203314      -3.40074239
C        2.85665073       3.91646371      -2.22670319
C        2.03907088       3.11104684      -1.42583672
N        4.26925038       4.14836910      -4.25227876
C        4.62670807       5.47392938      -4.15305713
O        4.12865813       6.26826793      -3.35956150
N        5.61979896       5.88100104      -5.04945555
C        6.59053205       4.97682097      -5.70052507
C        7.13171692       5.56559873      -7.01832715
N        7.66473837       6.91683005      -6.80770583
C        6.67487476       7.83959838      -6.22806581
C        6.08919150       7.27607684      -4.91808421
C        8.93940353       6.97869073      -6.25285259
N        9.36694053       8.14156429      -5.73068077
C       10.62636215       8.19183014      -5.24266901
C       11.48081999       7.12086549      -5.24209197
Br      13.22409761       7.21964126      -4.55948876
C       10.96549149       5.97049402      -5.77790267
N        9.71530727       5.87835719      -6.28268307
H        2.16452094       0.23884917      -3.24484705
H        3.58684162       1.65105739      -4.65889614
H        3.03217866       4.93750589      -1.90257856
H        1.60733635       3.52823036      -0.51951604
H        4.51761000       3.68636997      -5.10896788
H        6.15921395       3.99734426      -5.91366679
H        7.40177410       4.81640564      -4.97918750
H        7.86007312       4.88966618      -7.48198784
H        6.30170047       5.63833398      -7.73306418
H        7.07112229       8.84979408      -6.07258945
H        5.85857428       7.95030465      -6.95270883
H        6.84542245       7.28291750      -4.12358404
H        5.26654848       7.92288181      -4.59295059
H       10.92279364       9.15827018      -4.84719688
H       11.54681958       5.05463427      -5.83156936
C       -1.79132317      -1.79132317      -1.79132317
C       -1.98048349      -3.13043798      -1.46362599
C       -2.78635404      -3.93427780      -2.27528818
C       -3.40222945      -3.40919549      -3.42134039
C       -3.19714223      -2.06464506      -3.73803034
C       -2.39865268      -1.25469250      -2.92260927
N       -4.17409026      -4.29757056      -4.19823742
C       -4.91788026      -4.01447270      -5.32134162
O       -5.13481672      -2.88067678      -5.74099407
N       -5.44050396      -5.13479164      -5.97495995
C       -4.89948705      -6.50538389      -5.86300714
C       -5.96636607      -7.57297999      -6.17629674
N       -6.59909812      -7.31490105      -7.47527507
C       -7.20474493      -5.97587224      -7.56192178
C       -6.17524575      -4.87712639      -7.23098041
C       -5.86686837      -7.71523652      -8.58884197
N       -6.20558487      -7.23533912      -9.79826159
C       -5.51271048      -7.67652953     -10.87162129
C       -4.48066579      -8.57384001     -10.78927165
Br      -3.53747871      -9.16986914     -12.29587979
C       -4.18850039      -9.00343545      -9.52195234
N       -4.85970449      -8.59372431      -8.42291873
H       -1.50508735      -3.55870679      -0.58442302
H       -2.91510247      -4.97861275      -2.00307993
H       -3.64616247      -1.61035081      -4.61574983
H       -2.25868196      -0.20950581      -3.18689499
H       -4.31223562      -5.20671654      -3.79399569
H       -4.49411206      -6.70617790      -4.86993504
H       -4.06049433      -6.56948137      -6.56739153
H       -5.54641381      -8.58318214      -6.10213119
H       -6.74619475      -7.52150557      -5.40539832
H       -7.67978831      -5.78289272      -8.53082479
H       -8.01280824      -5.92739359      -6.82138593
H       -5.42491652      -4.79967884      -8.02732863
H       -6.69403570      -3.91353302      -7.17481215
H       -5.83818846      -7.26723262     -11.82283962
H       -3.38990795      -9.71388017      -9.32923508
C       -1.79132317       1.79132317       1.79132317
C       -2.78062411       1.21309027       2.58083309
C       -3.58702792       2.02458548       3.38430662
C       -3.41594894       3.41704462       3.39977177
C       -2.42186448       3.98078114       2.59717202
C       -1.60658955       3.17061581       1.79874909
N       -4.29177986       4.16138709       4.21673130
C       -4.28825695       5.51848588       4.44695175
O       -3.40403887       6.28292591       4.06952279
N       -5.38617612       5.99197079       5.17210864
C       -6.68915771       5.30263510       5.27608528
C       -7.45605015       5.70985489       6.54973777
N       -7.57500953       7.16970295       6.64456177
C       -6.27184519       7.85402632       6.61666744
C       -5.46041001       7.45480592       5.36813661
C       -8.57018867       7.74239287       5.85836532
N       -8.53987166       9.06736228       5.63195165
C       -9.54398017       9.60937182       4.90750931
C      -10.57914814       8.87974769       4.38488163
Br     -11.96016928       9.65861226       3.38444610
C      -10.52959413       7.53646320       4.64783084
N       -9.54872920       6.95471656       5.37290178
H       -2.93493871       0.13671566       2.57656280
H       -4.35705655       1.55158303       3.98815557
H       -2.25141049       5.05246707       2.56838555
H       -0.83573015       3.63244200       1.18691061
H       -4.88826099       3.61363373       4.81105313
H       -6.57980046       4.21687552       5.27354902
H       -7.25612323       5.56679342       4.37445058
H       -8.42555731       5.20062928       6.60554055
H       -6.88980917       5.36043055       7.42285892
H       -6.35931007       8.94428583       6.68990992
H       -5.71260128       7.54161435       7.50737213
H       -5.91590112       7.87359418       4.46242869
H       -4.45261652       7.87663326       5.45313109
H       -9.47607378      10.68376456       4.76842237
H      -11.29324287       6.85458540       4.28519493
C        1.79132317      -1.79132317       1.79132317
C        1.77705886      -3.17278281       1.62470580
C        2.58393735      -3.97597635       2.43600632
C        3.40395450      -3.40684666       3.42196418
C        3.40171713      -2.01920910       3.57889141
C        2.60231907      -1.21142125       2.76221413
N        4.16283682      -4.29278793       4.21427350
C        5.07734775      -3.98150909       5.19483774
O        5.47945841      -2.84534328       5.43168588
N        5.54737658      -5.07702507       5.92585390
C        4.83948892      -6.36710644       6.06128273
C        5.80608507      -7.52296434       6.38659339
N        6.63174953      -7.20094063       7.55658408
C        7.39618232      -5.95348082       7.39287582
C        6.46767623      -4.77400389       7.04167243
C        6.01227565      -7.36714205       8.79152915
N        6.56265265      -6.79820789       9.87832505
C        5.97177966      -7.01456023      11.07452140
C        4.84000972      -7.77009388      11.23367385
Br       4.04225362      -8.05480307      12.90617095
C        4.33364090      -8.30249383      10.07775344
N        4.89608549      -8.11724864       8.86301341
H        1.14211915      -3.63405162       0.87204639
H        2.55212472      -5.05278878       2.29188165
H        4.01354963      -1.52899347       4.32972000
H        2.62213338      -0.13320643       2.89974294
H        4.13855256      -5.25326623       3.92112906
H        4.28496768      -6.62714873       5.15810860
H        4.09992173      -6.23612585       6.86131966
H        5.26458545      -8.47002959       6.49711210
H        6.47710203      -7.66629289       5.52970371
H        8.01514049      -5.71322370       8.26514163
H        8.09867325      -6.09995529       6.56295922
H        5.84417726      -4.50473478       7.90301195
H        7.08366034      -3.90121839       6.79750214
H        6.46652671      -6.54359399      11.91814001
H        3.43884294      -8.91808735      10.07609291
C       -0.00445707       0.01189536      -1.78238275
H       -0.66409135       0.67374010      -2.43557963
H        0.65740317      -0.63156657      -2.45157240
C       -0.90989263      -0.90692880      -0.91072765
C        0.90977584       0.90977584      -0.90977584
C       -0.00465871       1.77757030       0.00794375
H       -0.66225468       2.44313916      -0.64384735
H        0.64322798       2.43503045       0.67728295
C       -1.78241447       0.00034974      -0.00472694
H       -2.45427497      -0.65498947       0.64260836
H       -2.43311707       0.67328779      -0.65473579
C       -0.91132561       0.90220522       0.91563759
C       -0.01476271      -0.02253852       1.78660255
H       -0.67934791      -0.69751639       2.42135241
H        0.63392994       0.61504881       2.47327442
C        0.01484550      -1.77751727      -0.01636693
H        0.67870853      -2.42144646      -0.68295456
H       -0.62264859      -2.45592969       0.64226336
C        1.78714474       0.01002794       0.00389507
H        2.44202412       0.67113390       0.66197326
H        2.45385902      -0.65136977      -0.64189061
C        0.91606151      -0.90478549       0.90901405
