109
Properties=species:S:1:pos:R:3 pbc="F F F"
C        0.00000000       0.00000000       0.00000000
Cl       7.95747215       2.95225526       0.41387601
C        7.01279629       1.95921654      -0.62499473
C        6.34737489       0.85087690      -0.10679567
C        5.57859206       0.04655326      -0.95206929
C        5.46791799       0.35432342      -2.31263583
C        6.15324497       1.46002159      -2.82640645
C        6.92190380       2.26603493      -1.98133888
S        4.47079847      -0.68971450      -3.35818282
C        3.19177380       0.49721894      -3.89685438
C        2.41068440       1.10489546      -2.75508165
C        1.58367842       0.31050700      -1.94567328
C        0.88232027       0.88232027      -0.88232027
C        0.98149786       2.24455981      -0.61454608
C        1.79389261       3.03606818      -1.42077043
C        2.50561254       2.47846319      -2.48435344
H        6.42112705       0.60611256       0.94929485
H        5.06132646      -0.81603438      -0.53788322
H        6.10249043       1.70143658      -3.88517605
H        7.44865157       3.12539705      -2.38753592
H        2.49475753      -0.03083663      -4.55783614
H        3.66275543       1.27554850      -4.50770617
H        1.49877944      -0.75693700      -2.13958905
H        0.43307509       2.68406423       0.21443111
H        3.14088393       3.11251913      -3.09794078
C        1.90491750       4.44704875      -1.15542671
C        1.99790084       5.62874499      -0.93320135
Br       2.14824704       7.53944785      -0.57388174
Cl      -8.15624651      -2.38372890       0.04412400
C       -7.07718294      -1.53119009      -0.98863453
C       -6.37071847      -0.43533964      -0.49898935
C       -5.49285099       0.25467395      -1.33903756
C       -5.31462704      -0.15517678      -2.66507343
C       -6.04100929      -1.24677068      -3.15189305
C       -6.91885923      -1.93848880      -2.31192958
S       -4.17931844       0.74418715      -3.70413550
C       -2.95466515      -0.55972207      -4.07145991
C       -2.29560172      -1.13537652      -2.83968326
C       -1.46974049      -0.34207952      -2.02803869
C       -0.88232027      -0.88232027      -0.88232027
C       -1.09504816      -2.21268417      -0.53287142
C       -1.90637327      -3.00385417      -1.34050377
C       -2.50509626      -2.47708715      -2.48624576
H       -6.49654578      -0.11216902       0.53077003
H       -4.94435878       1.10835196      -0.94716848
H       -5.93765797      -1.56527866      -4.18616644
H       -7.47708852      -2.78776537      -2.69673065
H       -2.17993300      -0.12690915      -4.71491490
H       -3.43814670      -1.34650113      -4.66136227
H       -1.29694830       0.70103774      -2.28552092
H       -0.63501408      -2.62771358       0.36001944
H       -3.14171342      -3.10961533      -3.10001508
C       -2.13417929      -4.38212009      -0.99109359
C       -2.32496682      -5.53641779      -0.69846257
Br      -2.63345413      -7.40281956      -0.22530295
Cl       0.47127067       7.91743534       3.04968674
C       -0.56676646       6.99651213       2.03372897
C       -0.04336844       6.33793139       0.92374763
C       -0.88800832       5.58843255       0.10077374
C       -2.25326888       5.49012543       0.39148294
C       -2.77197811       6.16858779       1.49910711
C       -1.92756544       6.91794553       2.32376664
S       -3.29799116       4.51743315      -0.67615752
C       -3.86525155       3.23116164       0.48943392
C       -2.73976646       2.42980358       1.10109145
C       -1.93073711       1.60262638       0.30649520
C       -0.88232027       0.88232027       0.88232027
C       -0.62936471       0.96260878       2.24863027
C       -1.43534566       1.77517278       3.04021278
C       -2.48403885       2.50567775       2.47871257
H        1.01629378       6.40215364       0.69208492
H       -0.46977045       5.07636345      -0.76295860
H       -3.83401409       6.12743011       1.72765888
H       -2.33766805       7.43943938       3.18447711
H       -4.52802543       2.54807167      -0.05434005
H       -4.47967827       3.70022649       1.26610533
H       -2.11312626       1.53234372      -0.76403850
H        0.18802270       0.39948714       2.69124377
H       -3.09761491       3.14070963       3.11301929
C       -1.18525325       1.86677206       4.45536766
C       -0.97580085       1.94348645       5.64055988
Br      -0.63713404       2.06752714       7.55691546
Cl       5.30516895       1.31567256       6.50635502
C        3.85264885       0.44947144       6.19383015
C        2.74509688       1.11799714       5.67794772
C        1.56658009       0.41203515       5.42266967
C        1.49746123      -0.96266037       5.67475564
C        2.60984641      -1.62163295       6.20819365
C        3.78983177      -0.91641848       6.46302736
S       -0.01998218      -1.83129460       5.32795436
C        0.54652401      -2.99745602       4.04186710
C        1.12815507      -2.31901517       2.82349126
C        0.32706566      -1.51841856       1.99437448
C        0.88232027      -0.88232027       0.88232027
C        2.22996189      -1.03903019       0.57161167
C        3.02457034      -1.83920710       1.38695377
C        2.48558514      -2.47754402       2.50530002
H        2.78954070       2.18405264       5.47245672
H        0.70734009       0.94249425       5.01832946
H        2.56889177      -2.68373457       6.43647674
H        4.65093645      -1.43629858       6.87434952
H       -0.31215526      -3.60347154       3.73044076
H        1.26777293      -3.69339996       4.48483720
H       -0.72747160      -1.38265239       2.22625069
H        2.65653848      -0.54155773      -0.29538799
H        3.12480262      -3.09247305       3.13406816
C        4.42022253      -2.01064320       1.07652724
C        5.58908124      -2.15422092       0.81654502
Br       7.47902691      -2.38637397       0.39617576
