122
Properties=species:S:1:pos:R:3 pbc="F F F"
Cl       8.86737618       3.86215929      -0.49602802
C        7.92270032       2.86912056      -1.53489876
C        7.25727891       1.76078093      -1.01669970
C        6.48849608       0.95645728      -1.86197331
C        6.37782202       1.26422745      -3.22253985
C        7.06314899       2.36992562      -3.73631048
C        7.83180782       3.17593896      -2.89124290
S        5.38070249       0.22018952      -4.26808685
C        4.10167782       1.40712297      -4.80675840
C        3.32058842       2.01479948      -3.66498567
C        2.49358244       1.22041103      -2.85557730
C        1.79222430       1.79222430      -1.79222430
C        1.89140189       3.15446383      -1.52445011
C        2.70379664       3.94597220      -2.33067445
Br       2.84964529       5.79951716      -1.98210374
C        3.41551656       3.38836722      -3.39425746
H        7.33103108       1.51601659       0.03939082
H        5.97123048       0.09386965      -1.44778724
H        7.01239446       2.61134061      -4.79508008
H        8.35855560       4.03530107      -3.29743995
H        3.40466156       0.87906740      -5.46774016
H        4.57265946       2.18545252      -5.41761019
H        2.40868346       0.15296703      -3.04949307
H        1.34297912       3.59396825      -0.69547292
H        4.05078795       4.02242315      -4.00784481
Cl       0.21421800      -5.40975222      -8.03002926
C       -0.23933619      -5.69209093      -6.39529251
C        0.59053464      -5.26286955      -5.36242463
C        0.21921817      -5.49127641      -4.03486844
C       -0.98458504      -6.14062654      -3.73937774
C       -1.80307991      -6.58234480      -4.78396037
C       -1.43298434      -6.35341630      -6.11258904
S       -1.42913202      -6.40613960      -2.03370724
C       -2.96405650      -5.42228441      -1.92921828
C       -2.77124686      -3.96221465      -2.26691207
C       -1.97682201      -3.13517780      -1.45757096
C       -1.79222430      -1.79222430      -1.79222430
C       -2.39842207      -1.25011971      -2.92177405
C       -3.19362335      -2.06564682      -3.72117312
Br      -4.02620887      -1.34550748      -5.25954985
C       -3.38363844      -3.41150557      -3.40299723
H        1.52451134      -4.75202490      -5.58014329
H        0.87312065      -5.15101965      -3.23498838
H       -2.72934301      -7.11248528      -4.57698686
H       -2.07603464      -6.69668623      -6.91857574
H       -3.34768533      -5.49856796      -0.90521584
H       -3.72336551      -5.87713262      -2.57522404
H       -1.49272911      -3.54508305      -0.57333140
H       -2.25122704      -0.20405261      -3.17714064
H       -4.00255956      -4.03393946      -4.04455689
Cl       0.45422042       6.74471200       6.93507190
C       -0.28748093       6.65312852       5.38611019
C        0.43868438       6.17564881       4.29779510
C       -0.16638943       6.09996475       3.04057250
C       -1.49879081       6.49317314       2.87262536
C       -2.21438108       6.98665693       3.96834708
C       -1.61023478       7.06184216       5.22691275
S       -2.23953247       6.37375390       1.25569249
C       -3.56815074       5.16440552       1.58300293
C       -3.06437439       3.83673742       2.09926176
C       -2.26631386       3.00792562       1.29533130
C       -1.79222430       1.79222430       1.79222430
C       -2.11012704       1.37782884       3.08235995
C       -2.90837370       2.19353727       3.87853231
Br      -3.35141660       1.64574394       5.63410565
C       -3.38573436       3.41422181       3.39818507
H        1.47194837       5.86164084       4.41796437
H        0.40830541       5.72427607       2.19691671
H       -3.24200939       7.32253817       3.85426758
H       -2.17400032       7.44322453       6.07407176
H       -4.11119120       4.99412168       0.64615624
H       -4.28955051       5.60739081       2.27878085
H       -2.00555354       3.31972913       0.28586089
H       -1.73834618       0.43044066       3.46363345
H       -4.00183228       4.04066199       4.03856164
Cl       9.19776711      -1.27830767       2.74948871
C        7.71158989      -1.03504426       3.58008548
C        6.84110588      -0.03131039       3.16234326
C        5.63312222       0.16332913       3.83713359
C        5.29130045      -0.64993984       4.92334902
C        6.17964901      -1.64441269       5.34532339
C        7.38810223      -1.84066366       4.67022379
S        3.73762306      -0.37770283       5.75365297
C        2.90443133      -1.97199062       5.43913725
C        2.73968350      -2.28955416       3.97113592
C        1.92027517      -1.49813504       3.15116056
C        1.79222430      -1.79222430       1.79222430
C        2.46222314      -2.87600612       1.23208657
C        3.26840768      -3.66752631       2.04450930
Br       4.18557200      -5.14523013       1.30046407
C        3.41093709      -3.38341445       3.40378971
H        7.09343004       0.60196817       2.31619497
H        4.95906688       0.94875246       3.50257296
H        5.94579595      -2.26965269       6.20336650
H        8.07148051      -2.61772094       5.00209517
H        1.91251973      -1.93473707       5.90421231
H        3.45385035      -2.76856171       5.95331011
H        1.39308207      -0.64481357       3.57324792
H        2.35857332      -3.10013540       0.17371157
H        4.05147360      -4.00946823       4.02011408
C       -0.00445707       0.01189536      -1.78238275
H       -0.66409135       0.67374010      -2.43557963
H        0.65740317      -0.63156657      -2.45157240
C       -0.90989263      -0.90692880      -0.91072765
C        0.90977584       0.90977584      -0.90977584
C       -0.00465871       1.77757030       0.00794375
H       -0.66225468       2.44313916      -0.64384735
H        0.64322798       2.43503045       0.67728295
C       -1.78241447       0.00034974      -0.00472694
H       -2.45427497      -0.65498947       0.64260836
H       -2.43311707       0.67328779      -0.65473579
C       -0.91132561       0.90220522       0.91563759
C       -0.01476271      -0.02253852       1.78660255
H       -0.67934791      -0.69751639       2.42135241
H        0.63392994       0.61504881       2.47327442
C        0.01484550      -1.77751727      -0.01636693
H        0.67870853      -2.42144646      -0.68295456
H       -0.62264859      -2.45592969       0.64226336
C        1.78714474       0.01002794       0.00389507
H        2.44202412       0.67113390       0.66197326
H        2.45385902      -0.65136977      -0.64189061
C        0.91606151      -0.90478549       0.90901405
