150
Properties=species:S:1:pos:R:3 pbc="F F F"
C        1.79172114       1.79172114      -1.79172114
C        2.65666155       2.71049903      -1.20299879
C        3.45626140       3.51713789      -2.01140489
C        3.39411377       3.40003890      -3.40199206
C        2.53414825       2.46888402      -3.98844543
C        1.72115875       1.67144041      -3.17971563
O        2.37864860       2.30143528      -5.34263911
S        3.61810814       2.55414842      -6.38110705
O        3.85909978       3.97826122      -6.45811803
O        4.66286894       1.60156082      -6.06665957
C        2.75814845       2.02767828      -7.80965252
S        3.78620115       2.10153646      -9.22325152
O        3.01039627       1.56855869     -10.32944103
O        4.39807542       3.40875314      -9.31784964
O        4.88488692       0.98471669      -8.78236471
C        5.92775180       0.61534404      -9.59162766
C        6.45228264      -0.65639114      -9.34008406
C        7.53698072      -1.13354572     -10.07684854
C        8.11206058      -0.33286499     -11.06147726
C        7.59649246       0.93987642     -11.30098946
Br       8.39607801       2.03495693     -12.62052652
C        6.50639802       1.42074013     -10.57198689
H        2.71293939       2.81029003      -0.12189731
H        4.12746979       4.24495943      -1.55944407
H        4.01925114       4.06187123      -3.99548869
H        1.04037980       0.95594378      -3.63226748
H        1.90615460       2.69196580      -7.97398361
H        2.41314011       0.99949704      -7.67730987
H        6.01689083      -1.28195757      -8.56394492
H        7.93694322      -2.12459686      -9.87795087
H        8.96210125      -0.70360084     -11.62822444
H        6.14650938       2.42493483     -10.77272008
C       -1.79172114      -1.79172114      -1.79172114
C       -1.52916304      -1.88500621      -3.15599013
C       -2.33941727      -2.68696763      -3.95841929
C       -3.40345222      -3.39634337      -3.39634914
C       -3.65621822      -3.30972166      -2.02553781
C       -2.85468605      -2.49406149      -1.22356725
O       -4.69450188      -3.94181322      -1.38640790
S       -5.26187977      -5.38681355      -1.90467029
O       -5.98681154      -5.17109620      -3.13757129
O       -4.18923619      -6.35315311      -1.78870002
C       -6.39409892      -5.61031908      -0.59106125
S       -7.23318362      -7.13822206      -0.73958344
O       -8.07936818      -7.26329381       0.43426600
O       -7.79492276      -7.26314620      -2.06660925
O       -5.95783353      -8.13335494      -0.56077984
C       -6.08177968      -9.49845845      -0.55448538
C       -5.05681573     -10.18418165       0.10502182
C       -5.05403724     -11.57874486       0.15249856
C       -6.07178189     -12.29561210      -0.47327886
C       -7.08489022     -11.61045020      -1.14201792
Br      -8.45118395     -12.58719374      -2.01318377
C       -7.09745889     -10.21446278      -1.18720336
H       -0.70398142      -1.33708671      -3.60405861
H       -2.14726273      -2.75724245      -5.02736810
H       -4.02249194      -3.99352837      -4.06059074
H       -3.05671522      -2.41261557      -0.15926026
H       -7.13719508      -4.80980348      -0.62510546
H       -5.86342301      -5.59028404       0.36376003
H       -4.25183982      -9.63159855       0.58456019
H       -4.25577318     -12.10463698       0.67011292
H       -6.06281350     -13.38196133      -0.44195000
H       -7.89142056      -9.71724874      -1.73549499
C       -1.79172114       1.79172114       1.79172114
C       -1.54081807       1.87023122       3.15911009
C       -2.35107589       2.67226425       3.96146405
C       -3.40345168       3.39640834       3.39628471
C       -3.64444323       3.32453081       2.02250366
C       -2.84303510       2.50887578       1.22040391
O       -4.67106551       3.97186005       1.37979744
S       -5.23003942       5.41723279       1.90609140
O       -5.96814352       5.19698922       3.13034629
O       -4.14766516       6.37473204       1.80869212
C       -6.34812343       5.66298254       0.58437327
S       -7.17464824       7.19708764       0.73925325
O       -8.00889194       7.34052868      -0.44102463
O       -7.74734663       7.31511147       2.06222011
O       -5.88874856       8.18209321       0.58112654
C       -6.00025361       9.54827431       0.58619558
C       -4.96312686      10.23054318      -0.05769449
C       -4.94727407      11.62539568      -0.09238622
C       -5.96416060      12.34584064       0.53067161
C       -6.98951207      11.66394090       1.18390537
Br      -8.35480779      12.64520456       2.05154911
C       -7.01514617      10.26777463       1.21620423
H       -0.72476961       1.31074804       3.60960908
H       -2.16807785       2.73108673       5.03270871
H       -4.02310295       3.99318545       4.06032265
H       -3.03605067       2.43893138       0.15360900
H       -7.09872522       4.86902174       0.60435705
H       -5.80893951       5.64674959      -0.36574208
H       -4.15884000       9.67498941      -0.53495124
H       -4.13957499      12.14863421      -0.59791196
H       -5.94505977      13.43230173       0.50936334
H       -7.81856389       9.77289439       1.75270601
C        1.79172114      -1.79172114       1.79172114
C        2.43898529      -2.89320797       1.23796612
C        3.23897299      -3.69860239       2.04722880
C        3.39450780      -3.39893254       3.40270440
C        2.75336067      -2.28630837       3.95180866
C        1.93902439      -1.48803600       3.14525440
O        2.81837135      -1.92828696       5.27606468
S        4.15338008      -2.22483606       6.17514747
O        4.22106071      -3.64756961       6.42684871
O        5.25339649      -1.48134071       5.59635212
C        3.58325054      -1.40291302       7.60931568
S        4.78782329      -1.44587203       8.87729381
O        4.25433698      -0.67051019       9.98354882
O        5.23678231      -2.80547189       9.08242401
O        5.94317136      -0.56501468       8.14378227
C        7.13062871      -0.25154839       8.75254640
C        7.76959322       0.88854798       8.25493031
C        9.00120695       1.29255177       8.77162836
C        9.60718551       0.54784477       9.78133211
C        8.97514380      -0.59605973      10.26615482
Br       9.81281010      -1.61990799      11.61884338
C        7.73889172      -1.00193959       9.75829373
H        2.32477258      -3.13592871       0.18442545
H        3.74009662      -4.56731305       1.62446363
H        4.01041775      -4.06407810       4.00211520
H        1.42703711      -0.62995696       3.57159698
H        2.68705903      -1.91042944       7.97461554
H        3.35543185      -0.36061809       7.37389708
H        7.30880606       1.46749770       7.45756981
H        9.49009428       2.18193152       8.38213447
H       10.57041330       0.85997112      10.17628266
H        7.28793476      -1.90979860      10.14643093
C       -0.00445707       0.01189536      -1.78238275
H       -0.66409135       0.67374010      -2.43557963
H        0.65740317      -0.63156657      -2.45157240
C       -0.90989263      -0.90692880      -0.91072765
C        0.90977584       0.90977584      -0.90977584
C       -0.00465871       1.77757030       0.00794375
H       -0.66225468       2.44313916      -0.64384735
H        0.64322798       2.43503045       0.67728295
C       -1.78241447       0.00034974      -0.00472694
H       -2.45427497      -0.65498947       0.64260836
H       -2.43311707       0.67328779      -0.65473579
C       -0.91132561       0.90220522       0.91563759
C       -0.01476271      -0.02253852       1.78660255
H       -0.67934791      -0.69751639       2.42135241
H        0.63392994       0.61504881       2.47327442
C        0.01484550      -1.77751727      -0.01636693
H        0.67870853      -2.42144646      -0.68295456
H       -0.62264859      -2.45592969       0.64226336
C        1.78714474       0.01002794       0.00389507
H        2.44202412       0.67113390       0.66197326
H        2.45385902      -0.65136977      -0.64189061
C        0.91606151      -0.90478549       0.90901405
