158
Properties=species:S:1:pos:R:3 pbc="F F F"
C        1.79172114       1.79172114      -1.79172114
C        2.65666155       2.71049903      -1.20299879
C        3.45626140       3.51713789      -2.01140489
C        3.39411377       3.40003890      -3.40199206
C        2.53414825       2.46888402      -3.98844543
C        1.72115875       1.67144041      -3.17971563
O        2.37864860       2.30143528      -5.34263911
S        3.61810814       2.55414842      -6.38110705
O        3.85909978       3.97826122      -6.45811803
O        4.66286894       1.60156082      -6.06665957
C        2.75814845       2.02767828      -7.80965252
S        3.78620115       2.10153646      -9.22325152
O        3.01039627       1.56855869     -10.32944103
O        4.39807542       3.40875314      -9.31784964
O        4.88488692       0.98471669      -8.78236471
C        5.92775180       0.61534404      -9.59162766
C        6.45228264      -0.65639114      -9.34008406
C        7.53698072      -1.13354572     -10.07684854
C        8.11206058      -0.33286499     -11.06147726
C        7.59649246       0.93987642     -11.30098946
C        6.50639802       1.42074013     -10.57198689
H        2.71293939       2.81029003      -0.12189731
H        4.12746979       4.24495943      -1.55944407
H        4.01925114       4.06187123      -3.99548869
H        1.04037980       0.95594378      -3.63226748
H        1.90615460       2.69196580      -7.97398361
H        2.41314011       0.99949704      -7.67730987
H        6.01689083      -1.28195757      -8.56394492
H        7.93694322      -2.12459686      -9.87795087
H        8.96210125      -0.70360084     -11.62822444
H        6.14650938       2.42493483     -10.77272008
C        8.20505206       1.77333540     -12.30528093
C        8.71472072       2.47135729     -13.14637503
Br       9.53881183       3.59999966     -14.50635306
C       -1.79172114      -1.79172114      -1.79172114
C       -1.62568987      -1.77041398      -3.17405553
C       -2.43593591      -2.57296074      -3.97590753
C       -3.40341576      -3.39687254      -3.39585644
C       -3.55875658      -3.42453244      -2.00818868
C       -2.75817088      -2.60897597      -1.20516795
O       -4.50023442      -4.17498337      -1.34750521
S       -5.00313082      -5.61883306      -1.93139973
O       -5.83109374      -5.37279305      -3.09159224
O       -3.86044368      -6.50828981      -1.96235583
C       -6.01612891      -6.01656002      -0.56279031
S       -6.75603332      -7.58874700      -0.76620881
O       -7.50171428      -7.85755739       0.45087568
O       -7.40505440      -7.66290066      -2.05672314
O       -5.40501547      -8.49610191      -0.75085093
C       -5.43324242      -9.86379046      -0.83769063
C       -4.31694529     -10.51530822      -0.30372204
C       -4.21399576     -11.90571751      -0.36057026
C       -5.22339337     -12.65131107      -0.96596841
C       -6.32854523     -11.99882872      -1.50998440
C       -6.44116214     -10.60789072      -1.45007218
H       -0.87614185      -1.13281433      -3.63617056
H       -2.31953808      -2.55447421      -5.05786099
H       -4.02733735      -3.99103829      -4.05823542
H       -2.88551208      -2.61676328      -0.12631569
H       -6.81338364      -5.27319530      -0.48552507
H       -5.41846748      -6.02326989       0.35179034
H       -3.51872056      -9.93886120       0.15870358
H       -3.34486905     -12.40528762       0.05985943
H       -5.13684944     -13.73352568      -1.01634972
H       -7.30630654     -10.13440331      -1.90345445
C       -7.36089836     -12.76987722      -2.15289280
C       -8.22549411     -13.41563035      -2.69132859
Br      -9.62347231     -14.45975853      -3.56193372
C       -1.79172114       1.79172114       1.79172114
C       -1.60214518       1.79683536       3.17117884
C       -2.41240068       2.59924088       3.97316263
C       -3.40343095       3.39674522       3.39596856
C       -3.58251774       3.39807040       2.01088956
C       -2.78171709       2.58247661       1.20812109
O       -4.54765287       4.12119383       1.35387630
S       -5.06526995       5.56615754       1.92193612
O       -5.86929453       5.32610417       3.10008034
O       -3.93759251       6.47508913       1.91840768
C       -6.10777215       5.92335744       0.56434965
S       -6.87091592       7.48613630       0.75393691
O       -7.64142832       7.72153825      -0.45457058
O       -7.49933259       7.57141880       2.05392682
O       -5.53605177       8.41567007       0.70024647
C       -5.58618641       9.78397557       0.76456152
C       -4.49031759      10.44493802       0.20071995
C       -4.41020573      11.83764939       0.23242842
C       -5.42188334      12.57641402       0.84237549
C       -6.50642478      11.91484627       1.41608730
C       -6.59624369      10.52139152       1.38148983
H       -0.83415012       1.17991196       3.63106465
H       -2.27753960       2.60120712       5.05312657
H       -4.02619777       3.99157679       4.05883650
H       -2.92728343       2.56968334       0.13162429
H       -6.89339142       5.16548896       0.51322364
H       -5.52576536       5.92447725      -0.36029559
H       -3.69024060       9.87416639      -0.26552881
H       -3.55693154      12.34449495      -0.21112925
H       -5.35301370      13.66063305       0.87307808
H       -7.44542877      10.04125127       1.85748425
C       -7.54085606      12.67931388       2.06349845
C       -8.40719226      13.31955550       2.60570528
Br      -9.80798462      14.35477206       3.48240787
C        1.79172114      -1.79172114       1.79172114
C        2.43243821      -2.89793773       1.23978344
C        3.23244132      -3.70329548       2.04906738
C        3.39452280      -3.39890014       3.40272179
C        2.75994816      -2.28158896       3.94994058
C        1.94557934      -1.48328564       3.14344981
O        2.83161346      -1.91860766       5.27250188
S        4.16899179      -2.21689228       6.16747955
O        4.23205671      -3.63887888       6.42454345
O        5.26963156      -1.48004699       5.58141077
C        3.60779163      -1.38706816       7.60061944
S        4.81719688      -1.42979524       8.86399701
O        4.29115732      -0.64796999       9.96926867
O        5.26159883      -2.79034255       9.07273683
O        5.97309658      -0.55641941       8.12245232
C        7.16418220      -0.24525894       8.72528237
C        7.80566292       0.89032694       8.22063958
C        9.04089675       1.29148555       8.73087233
C        9.64792677       0.54837301       9.74111909
C        9.01330307      -0.59109880      10.23295647
C        7.77345855      -0.99408023       9.73158626
H        2.31309835      -3.14435762       0.18767076
H        3.72845690      -4.57564424       1.62777215
H        4.01017323      -4.06411001       4.00232781
H        1.43867251      -0.62151121       3.56840734
H        2.71105892      -1.88958731       7.97145779
H        3.38315517      -0.34481593       7.36197592
H        7.34400909       1.46794737       7.42281646
H        9.53174194       2.17737941       8.33593472
H       10.61393442       0.85823815      10.13102857
H        7.32046490      -1.89860860      10.12509079
C        9.65183891      -1.36879516      11.26303431
C       10.18661268      -2.02011587      12.12572449
Br      11.05129664      -3.07324636      13.52062156
C       -0.00445707       0.01189536      -1.78238275
H       -0.66409135       0.67374010      -2.43557963
H        0.65740317      -0.63156657      -2.45157240
C       -0.90989263      -0.90692880      -0.91072765
C        0.90977584       0.90977584      -0.90977584
C       -0.00465871       1.77757030       0.00794375
H       -0.66225468       2.44313916      -0.64384735
H        0.64322798       2.43503045       0.67728295
C       -1.78241447       0.00034974      -0.00472694
H       -2.45427497      -0.65498947       0.64260836
H       -2.43311707       0.67328779      -0.65473579
C       -0.91132561       0.90220522       0.91563759
C       -0.01476271      -0.02253852       1.78660255
H       -0.67934791      -0.69751639       2.42135241
H        0.63392994       0.61504881       2.47327442
C        0.01484550      -1.77751727      -0.01636693
H        0.67870853      -2.42144646      -0.68295456
H       -0.62264859      -2.45592969       0.64226336
C        1.78714474       0.01002794       0.00389507
H        2.44202412       0.67113390       0.66197326
H        2.45385902      -0.65136977      -0.64189061
C        0.91606151      -0.90478549       0.90901405
