157
Properties=species:S:1:pos:R:3 pbc="F F F"
C        0.00000000       0.00000000       0.00000000
C        0.88097282       0.88097282      -0.88097282
C        0.97293460       0.62740339      -2.24906892
C        1.77136176       1.44384479      -3.05534923
C        2.46515685       2.51382913      -2.48815824
C        2.38526444       2.75184164      -1.11588392
C        1.58639066       1.93766006      -0.31059576
N        3.28874184       3.35596171      -3.30069285
S        4.87784845       2.84220672      -3.59248596
O        4.92521995       1.40107157      -3.53242761
O        5.27960097       3.55139660      -4.78880829
C        5.78112288       3.50769429      -2.21729755
C        5.93895306       4.99362097      -2.32921849
O        7.04752329       5.47903456      -2.57494049
C        4.72917096       5.85503386      -2.12035045
S        5.11437633       7.24810203      -1.08754467
O        3.89867544       8.01757492      -0.92759044
O        5.80591979       6.73519472       0.07819111
N        6.23182791       8.13837598      -1.98082350
C        5.84459749       8.61176615      -3.27128597
C        6.48596492       8.08775980      -4.39650628
C        6.09779397       8.48631228      -5.67617583
C        5.07648991       9.42158645      -5.82540793
Br       4.55377583       9.96508220      -7.55783172
C        4.44070658       9.95889693      -4.70657543
C        4.82525943       9.55101442      -3.42590042
H        0.43205956      -0.20386722      -2.69471867
H        1.84962522       1.22629736      -4.11743637
H        2.91187089       3.57855767      -0.65339335
H        1.51824814       2.14083193       0.75584315
H        2.86476849       3.57411268      -4.20934669
H        6.77351271       3.04549752      -2.24582313
H        5.30979179       3.22243254      -1.27606145
H        3.97098218       5.30546637      -1.56117117
H        4.30297655       6.18852592      -3.06753412
H        7.14868053       7.67902635      -1.95027287
H        7.28712196       7.35930525      -4.29445201
H        6.59802847       8.06212216      -6.54268468
H        3.64858777      10.69495521      -4.81829042
H        4.32888795       9.97932307      -2.55783100
C       -0.88097282      -0.88097282      -0.88097282
C       -0.29975496      -1.84070551      -1.70894644
C       -1.11042666      -2.65441359      -2.50571553
C       -2.49769233      -2.50789488      -2.46155702
C       -3.07349312      -1.53337636      -1.64612052
C       -2.26413485      -0.72172811      -0.84878351
N       -3.33976318      -3.33164336      -3.27398987
S       -3.61644424      -2.82729448      -4.86880240
O       -2.48570993      -2.05257503      -5.32043418
O       -4.02424033      -4.02728296      -5.56828257
C       -5.02621260      -1.75935480      -4.72054732
C       -6.27873973      -2.53533946      -4.44771334
O       -7.14536020      -2.63429020      -5.32184795
C       -6.44667485      -3.16222056      -3.09565986
S       -8.08754571      -2.89112504      -2.47135229
O       -8.16272658      -3.51424392      -1.16687030
O       -8.36967426      -1.47703049      -2.61621865
N       -9.08902450      -3.71405260      -3.54795028
C       -8.88662557      -5.11663732      -3.72438672
C       -8.43115312      -5.57649397      -4.96258391
C       -8.17071469      -6.93364846      -5.15591894
C       -8.38176138      -7.83044766      -4.11127524
Br      -8.03375755      -9.66885398      -4.37407823
C       -8.84885235      -7.38063942      -2.87668717
C       -9.10022260      -6.01917334      -2.68277832
H        0.78046815      -1.95917660      -1.74420255
H       -0.64576575      -3.38715261      -3.16044058
H       -4.14814155      -1.40333835      -1.59234201
H       -2.72343153       0.02475627      -0.20456168
H       -3.02885158      -4.30888258      -3.31049370
H       -5.13120070      -1.24956583      -5.68406682
H       -4.85063467      -0.99752812      -3.96012300
H       -5.79709108      -2.66892311      -2.37160554
H       -6.21667644      -4.22842041      -3.11393974
H       -9.17719510      -3.18080789      -4.41997676
H       -8.26523186      -4.88779184      -5.78785552
H       -7.80627663      -7.27563070      -6.12092798
H       -9.02245344      -8.07817823      -2.06120172
H       -9.47039775      -5.67676739      -1.71887688
C       -0.88097282       0.88097282       0.88097282
C       -1.90119532       0.30843324       1.63977836
C       -2.69863814       1.11677142       2.45514622
C       -2.46363381       2.49134234       2.51216808
C       -1.45431063       3.06214981       1.73652956
C       -0.65643834       2.25476794       0.92344021
N       -3.27400854       3.33149450       3.33989336
S       -4.73544331       3.89020025       2.68689756
O       -5.20926887       2.93859070       1.71085956
O       -5.54140961       4.24146724       3.83692901
C       -4.26555375       5.38576895       1.85479202
C       -3.95253206       6.48205982       2.82720064
O       -4.71834609       7.44435303       2.93879921
C       -2.69203428       6.37921873       3.63330226
S       -1.83832613       7.93650402       3.67519289
O       -0.63546026       7.74971669       4.45866385
O       -1.74657080       8.40834435       2.30800825
N       -2.88843264       8.97057545       4.49201930
C       -3.28436089       8.62375473       5.81953398
C       -4.62160797       8.29415868       6.05446435
C       -5.03488679       7.89830542       7.32708988
C       -4.10908932       7.84787000       8.36652496
Br      -4.66922285       7.31647646      10.09099045
C       -2.77537171       8.18814932       8.14265791
C       -2.36203923       8.57554527       6.86458978
H       -2.08565952      -0.76232205       1.59957353
H       -3.50231982       0.66228842       3.02875071
H       -1.25070848       4.12624423       1.76686920
H        0.13820184       2.70715586       0.33428291
H       -3.48590850       2.91078213       4.25153723
H       -5.12725215       5.68751996       1.25006124
H       -3.43285063       5.20002260       1.17541255
H       -1.99132219       5.69987784       3.14641970
H       -2.88859736       6.02445631       4.64598291
H       -3.65902290       9.24580307       3.87315377
H       -5.35567779       8.33235796       5.25284347
H       -6.07594437       7.63416147       7.49272947
H       -2.05121385       8.15778413       8.95283542
H       -1.32130286       8.84553318       6.69920598
C        0.88097282      -0.88097282       0.88097282
C        0.95995069      -2.25174849       0.63770772
C        1.77741271      -3.05410046       1.43904261
C        2.51702680      -2.47745350       2.47266393
C        2.41988922      -1.10873818       2.72436260
C        1.60490426      -0.30677499       1.92296723
N        3.35548746      -3.28691812       3.30299082
S        2.62866332      -4.05666522       4.62721259
O        1.23682944      -4.29362524       4.32826446
O        3.51829309      -5.15230109       4.94921168
C        2.74394070      -2.84410099       5.91807303
C        4.15089248      -2.69823241       6.41266763
O        4.45509583      -3.10995695       7.53644556
C        5.15383643      -2.03270942       5.51800942
S        6.14560744      -0.87472266       6.42969293
O        7.07452538      -0.27216921       5.49714621
O        5.23567302      -0.03949450       7.18775588
N        6.99212681      -1.82391558       7.53498501
C        7.83573489      -2.86036173       7.03155299
C        7.49049930      -4.18919386       7.29053784
C        8.26060198      -5.22982279       6.76985732
C        9.38510754      -4.93620991       6.00216683
Br      10.43086246      -6.34493836       5.30088894
C        9.74345241      -3.61221258       5.75051395
C        8.96495543      -2.57156388       6.26565496
H        0.38694390      -2.70402949      -0.16806238
H        1.81773830      -4.12401708       1.25160357
H        2.98721184      -0.63784474       3.51876533
H        1.54787897       0.76195826       2.11731622
H        3.86982338      -4.00192684       2.77647764
H        2.11795069      -3.20662235       6.74026030
H        2.33322988      -1.89035429       5.58470162
H        4.64275841      -1.42253225       4.77232906
H        5.78758285      -2.76114607       5.01030767
H        6.36905411      -2.11116955       8.29775608
H        6.61704186      -4.43274089       7.89109647
H        7.97389201      -6.25873859       6.97020470
H       10.62474027      -3.37857553       5.15851759
H        9.25443237      -1.54131371       6.07029593
