197
Properties=species:S:1:pos:R:3 pbc="F F F"
C        0.00000000       0.00000000       0.00000000
S        4.22429264       6.15118339      -5.22365588
C        3.55626087       6.34117094      -3.71505942
N        2.40920354       5.61998194      -3.38641564
N        1.98237550       5.50112151      -2.01983347
C        1.05652259       4.53994244      -1.85455223
H        0.16220033       4.76491620      -1.27387151
C        1.42299211       3.09109520      -1.77469915
C        0.60301603       2.25000974      -1.00292838
C        0.88310679       0.88310679      -0.88310679
C        1.96564098       0.31260462      -1.54851923
C        2.79065367       1.12518374      -2.31503557
C        2.52885041       2.49225920      -2.40175472
O        3.43556356       3.21825617      -3.11646907
N        3.98563454       7.06088207      -2.62160915
C        5.16328494       7.77814651      -2.33800761
C        5.64140421       7.60203705      -1.02493576
C        6.81078900       8.22193621      -0.57932575
C        7.53138314       9.03440226      -1.44306175
C        7.05377466       9.25658422      -2.73318027
C        5.85184002       8.66779779      -3.18232534
C        5.32446404       9.25493273      -4.44913557
O        6.10340476       9.68127047      -5.30211561
N        3.94722363       9.37098961      -4.50844384
N        3.35640403       9.83846997      -5.64142361
C        2.11255120       9.50684600      -5.76780595
C        1.34394897       9.91684252      -6.95585747
C        0.00447804       9.52365214      -7.03537695
C       -0.75352793       9.90576371      -8.14142068
Br      -2.56745686       9.38107416      -8.25685366
C       -0.19128554      10.67167995      -9.16293757
C        1.14855510      11.05694737      -9.08350232
C        1.91478006      10.67698335      -7.98474312
O        3.22134894      11.08257144      -7.98467529
H        1.91071972       5.08761410      -4.10163964
H       -0.24750218       2.66908687      -0.47295916
H        2.18396180      -0.74654912      -1.46883169
H        3.64890596       0.71491259      -2.83882029
H        3.13231882       4.15430885      -2.97798889
H        3.46801503       6.65354420      -1.83638207
H        5.10764970       6.94709321      -0.33658587
H        7.15574771       8.06052100       0.43824665
H        8.44290706       9.52155618      -1.10935061
H        7.59371857       9.94361030      -3.38380228
H        3.39090222       8.84934241      -3.83158791
H        1.58537756       8.90126032      -5.00667800
H       -0.43919479       8.92161195      -6.24562640
H       -0.78203894      10.96863723     -10.02468737
H        1.59873377      11.64696275      -9.87615829
H        3.66274394      10.69067029      -7.19205965
S       -4.17019247      -6.08015576      -5.34878368
C       -3.39176135      -6.31937323      -3.90135666
N       -2.27286431      -5.54490300      -3.59783381
N       -1.76357389      -5.48384373      -2.25591286
C       -0.89100541      -4.47497725      -2.08503459
H        0.05265956      -4.67547753      -1.57817007
C       -1.34168702      -3.06190023      -1.88519920
C       -0.52627501      -2.21787236      -1.11180679
C       -0.88310679      -0.88310679      -0.88310679
C       -2.04160667      -0.34585004      -1.43930812
C       -2.86347412      -1.16216109      -2.20523776
C       -2.52261904      -2.50040823      -2.39983706
O       -3.42780835      -3.23924759      -3.10323286
N       -3.70063592      -7.13363326      -2.83385657
C       -4.80913880      -7.94475752      -2.52554275
C       -5.20815139      -7.88408187      -1.17614375
C       -6.30367086      -8.60788856      -0.70049154
C       -7.02809671      -9.41096191      -1.56978854
C       -6.62515392      -9.51899264      -2.89939258
C       -5.49550309      -8.82375911      -3.38270095
C       -5.01848477      -9.29331994      -4.71672763
O       -5.82457373      -9.71649614      -5.54572096
N       -3.64376699      -9.31269053      -4.87019956
N       -3.10211495      -9.66726223      -6.06692042
C       -1.89287978      -9.24558696      -6.24873641
C       -1.18151190      -9.52751899      -7.50761807
C        0.12220983      -9.04106638      -7.64465058
C        0.82677827      -9.30110110      -8.81933364
Br       2.59226404      -8.64959442      -9.01314058
C        0.24651190     -10.03726692      -9.85257696
C       -1.05808195     -10.51584969      -9.71507315
C       -1.77118853     -10.25804704      -8.54727097
O       -3.04670211     -10.74963862      -8.49225494
H       -1.85799643      -4.93634101      -4.30563602
H        0.38257545      -2.61140419      -0.66571512
H       -2.32026864       0.68914271      -1.27511845
H       -3.77905679      -0.77830613      -2.64527593
H       -3.05767807      -4.15968173      -3.04725675
H       -3.15811371      -6.74265928      -2.05716831
H       -4.67164018      -7.23937545      -0.48031315
H       -6.58900234      -8.53431900       0.34529928
H       -7.88271056      -9.97823622      -1.21286706
H       -7.16327749     -10.19843375      -3.55941992
H       -3.07717237      -8.79847748      -4.19618269
H       -1.35493096      -8.65504868      -5.48333623
H        0.57915655      -8.46146481      -6.84573531
H        0.79558231     -10.23910251     -10.76776546
H       -1.52245831     -11.08373149     -10.51566501
H       -3.45766059     -10.43888602      -7.64892728
S       -4.14533716       5.41887230       6.03492245
C       -2.75721925       5.69067962       5.16459236
N       -1.91107119       4.61804153       4.88648840
N       -0.88584098       4.73100108       3.88648843
C       -0.37641632       3.53610629       3.53849465
H        0.70595371       3.42037128       3.48657047
C       -1.08108952       2.62004892       2.58764801
C       -0.29349436       1.76821676       1.79424304
C       -0.88310679       0.88310679       0.88310679
C       -2.26791110       0.80116021       0.75769352
C       -3.06570311       1.63497936       1.53019051
C       -2.47274636       2.54047126       2.40964671
O       -3.33450680       3.36633062       3.06945138
N       -2.28313533       6.83101670       4.55397373
C       -2.82833575       8.11113965       4.33996366
C       -2.55972514       8.64434788       3.06430399
C       -3.04301960       9.89508746       2.67394389
C       -3.81072644      10.64233790       3.55578281
C       -4.05288992      10.15282945       4.83781977
C       -3.53607101       8.90803463       5.25785751
C       -3.61097397       8.68571787       6.73184049
O       -4.54124181       9.16454354       7.38100548
N       -2.52528125       8.02417820       7.27719763
N       -2.51707534       7.71665307       8.60256919
C       -1.71381144       6.75368492       8.91970679
C       -1.61371307       6.28886918      10.31406671
C       -0.73000247       5.24152706      10.59197760
C       -0.60337256       4.78650156      11.90378235
Br       0.59169919       3.37181805      12.29035210
C       -1.34568307       5.36280232      12.93484659
C       -2.23224253       6.40409900      12.65266327
C       -2.36852003       6.86287685      11.34510965
O       -3.26481514       7.87720566      11.14657486
H       -2.06998108       3.70786796       5.32212442
H        0.78908114       1.81200623       1.87161877
H       -2.73279853       0.11183989       0.06160595
H       -4.14825700       1.60418123       1.45020062
H       -2.72581901       3.98305448       3.55574308
H       -1.58794701       6.48482623       3.88516806
H       -1.98205806       8.06457129       2.34469944
H       -2.82271696      10.27511652       1.68018858
H       -4.19346262      11.61604770       3.26430352
H       -4.60513230      10.77304365       5.54295520
H       -1.89373909       7.53330463       6.64478882
H       -1.08687101       6.23922907       8.16721579
H       -0.15219513       4.78342238       9.79242604
H       -1.24712914       5.00759521      13.95656131
H       -2.82051721       6.85531434      13.44602327
H       -3.31315406       8.05641614      10.17590367
S        6.28509932      -4.44463558       4.86939701
C        5.89936734      -2.82932495       4.88379894
N        5.50309092      -2.21687310       3.69563710
N        4.86225197      -0.93119073       3.70988778
C        4.28356063      -0.63467645       2.53278017
H        4.45443160       0.34866559       2.09522203
C        2.95327538      -1.19622580       2.13928527
C        2.13995756      -0.42193810       1.29405850
C        0.88310679      -0.88310679       0.88310679
C        0.41528052      -2.13458210       1.27690221
C        1.20127257      -2.91584891       2.11375150
C        2.43628233      -2.43674704       2.54983496
O        3.10115199      -3.24288238       3.42625443
N        5.81223022      -1.93112462       5.92477091
C        5.89332863      -2.06203856       7.32407187
C        4.95420558      -1.28470863       8.02946279
C        4.87860211      -1.30972556       9.42372328
C        5.74464765      -2.11847844      10.14572106
C        6.70973483      -2.86323323       9.47057108
C        6.82239122      -2.81544033       8.06413161
C        8.08802876      -3.40446067       7.53604291
O        8.61683232      -4.35199685       8.11796167
N        8.63507152      -2.73635687       6.45522870
N        9.75676954      -3.22197558       5.85755249
C        9.93191495      -2.81195223       4.64333597
C       11.08873535      -3.27216093       3.85575267
C       11.22004843      -2.79569881       2.54775989
C       12.31040648      -3.20302922       1.78022077
Br      12.49838250      -2.56170776       0.01038070
C       13.26525340      -4.07613485       2.30194373
C       13.12742554      -4.55528366       3.60629559
C       12.03988749      -4.15727870       4.37934034
O       11.96803629      -4.67827732       5.64228205
H        5.57688932      -2.71576460       2.80731954
H        2.48026635       0.55818417       0.97246168
H       -0.55249288      -2.50325853       0.95547873
H        0.86269071      -3.89205749       2.44789065
H        3.88710524      -2.69266666       3.68484465
H        5.25203282      -1.16199271       5.54391576
H        4.24549890      -0.66249367       7.48333621
H        4.13840206      -0.70236180       9.93725820
H        5.69566630      -2.14785477      11.23029277
H        7.42398170      -3.44796573      10.04918372
H        8.04737608      -2.07136085       5.95309561
H        9.22535406      -2.11863573       4.14932608
H       10.47655711      -2.11928480       2.13220165
H       14.11421893      -4.39364618       1.70342055
H       13.86057459      -5.24097197       4.02030825
H       11.12194391      -4.37235401       6.05117596
