118
Properties=species:S:1:pos:R:3 pbc="F F F"
C        2.45877235       2.02996819      -5.54250229
C        2.46831841       2.34551603      -4.07566159
C        1.77429842       1.53125171      -3.17552276
C        1.80047683       1.80047683      -1.80047683
C        2.53317111       2.89044486      -1.29510581
C        3.24007658       3.69703202      -2.20634426
C        3.20994165       3.42179112      -3.58030554
N        2.56034453       3.16564734       0.08679038
C        2.06394828       4.29690444       0.66244498
O        1.47628249       5.23942548       0.16516754
C        2.30516748       4.17689038       2.10691871
C        2.90424910       3.00666138       2.32839021
C        3.08966360       2.34010980       1.03247507
O        3.66813834       1.27489878       0.91234910
H        2.73444645       2.90657778      -6.13803881
H        1.45862811       1.72004760      -5.86311258
H        3.16857009       1.22502304      -5.75665707
H        1.19712883       0.68846355      -3.55274555
H        3.77888082       4.04349634      -4.26973505
H        2.01565111       4.92990686       2.81838582
H        3.22761764       2.58261890       3.26251813
C        4.10399230       4.77002368      -1.78689399
C        4.82752171       5.66865420      -1.43560438
Br       5.99740758       7.12166374      -0.86759881
C       -2.10050775      -5.55049399      -2.38024108
C       -2.38223238      -4.07758188      -2.42968176
C       -1.56332889      -3.18022879      -1.73751521
C       -1.80047683      -1.80047683      -1.80047683
C       -2.86203026      -1.28777005      -2.56892147
C       -3.67322633      -2.19668212      -3.27354442
C       -3.43012915      -3.57539389      -3.20651529
N       -3.10497412       0.09893926      -2.63316663
C       -4.23359585       0.71084263      -2.17565452
O       -5.20007957       0.24823312      -1.59869397
C       -4.07532497       2.14640506      -2.44621924
C       -2.88728407       2.32801177      -3.02324798
C       -2.24648975       1.01366666      -3.16447524
O       -1.17166264       0.85666100      -3.71568637
H       -2.98410581      -6.13246974      -2.66248749
H       -1.82035458      -5.85504366      -1.36639005
H       -1.28503047      -5.79867260      -3.06654712
H       -0.74243984      -3.56288815      -1.13300994
H       -4.05455518      -4.26358566      -3.77397136
H       -4.81818895       2.88090115      -2.18988435
H       -2.43494581       3.24483625      -3.35760885
C       -4.71684573      -1.77322326      -4.17084099
C       -5.59087698      -1.41857646      -4.92232686
Br      -7.00411158      -0.84514258      -6.13741597
C       -2.97684132       5.41688187       1.63751964
C       -2.83180467       3.98752410       2.07016726
C       -1.96497566       3.12928768       1.38680954
C       -1.80047683       1.80047683       1.80047683
C       -2.49695827       1.30388663       2.91787688
C       -3.35706068       2.17797816       3.60841402
C       -3.51654511       3.50596089       3.18953232
N       -2.33574759      -0.03233052       3.33578442
C       -3.32622932      -0.96852061       3.34069903
O       -4.48080842      -0.89369956       2.96343156
C       -2.73151659      -2.21029907       3.85392163
C       -1.44498673      -1.97455090       4.11208446
C       -1.16966051      -0.56691619       3.79455401
O       -0.08668928      -0.04392580       3.98792454
H       -3.90517988       5.85416149       2.01972168
H       -3.00952274       5.48705445       0.54521110
H       -2.13377096       6.00757329       2.00890594
H       -1.42481064       3.49753767       0.51598961
H       -4.17024016       4.17483894       3.74703310
H       -3.28410826      -3.12595902       3.96902291
H       -0.70125131      -2.64992939       4.49639649
C       -4.03378369       1.80391804       4.82320823
C       -4.60053922       1.49064269       5.84059839
Br      -5.51693496       0.98410294       7.48563223
C        2.52410437      -1.97368198       5.53345647
C        2.50052874      -2.31614341       4.07282387
C        1.80486690      -1.50569212       3.17051386
C        1.80047683      -1.80047683       1.80047683
C        2.50355377      -2.91297965       1.30218837
C        3.21244410      -3.71579348       2.21521529
C        3.21296887      -3.41494114       3.58412831
N        2.49992128      -3.21388359      -0.07460337
C        1.97226135      -4.34603568      -0.61988928
O        1.37681780      -5.26817997      -0.09445735
C        2.18866756      -4.25699322      -2.07052164
C        2.80483152      -3.10238420      -2.32469544
C        3.02653830      -2.41580110      -1.04504106
O        3.62654839      -1.35953881      -0.95539919
H        2.79474397      -2.84423300       6.14008608
H        1.53594962      -1.63935593       5.86648274
H        3.25238259      -1.17832406       5.71954355
H        1.25034931      -0.64552914       3.54245948
H        3.78318851      -4.03442336       4.27450033
H        1.87220702      -5.01737566      -2.76241054
H        3.11843632      -2.70160908      -3.27232699
C        4.04861004      -4.81219951       1.80010043
C        4.74889901      -5.73043955       1.45244173
Br       5.88120706      -7.21515604       0.89030703
C       -0.00445707       0.01189536      -1.78238275
H       -0.66409135       0.67374010      -2.43557963
H        0.65740317      -0.63156657      -2.45157240
C       -0.90989263      -0.90692880      -0.91072765
C        0.90977584       0.90977584      -0.90977584
C       -0.00465871       1.77757030       0.00794375
H       -0.66225468       2.44313916      -0.64384735
H        0.64322798       2.43503045       0.67728295
C       -1.78241447       0.00034974      -0.00472694
H       -2.45427497      -0.65498947       0.64260836
H       -2.43311707       0.67328779      -0.65473579
C       -0.91132561       0.90220522       0.91563759
C       -0.01476271      -0.02253852       1.78660255
H       -0.67934791      -0.69751639       2.42135241
H        0.63392994       0.61504881       2.47327442
C        0.01484550      -1.77751727      -0.01636693
H        0.67870853      -2.42144646      -0.68295456
H       -0.62264859      -2.45592969       0.64226336
C        1.78714474       0.01002794       0.00389507
H        2.44202412       0.67113390       0.66197326
H        2.45385902      -0.65136977      -0.64189061
C        0.91606151      -0.90478549       0.90901405
