138
Properties=species:S:1:pos:R:3 pbc="F F F"
O        2.99778165       6.03234789      -4.70909152
C        4.03420494       5.39241365      -4.83160886
N        4.27670485       4.16056037      -4.23862198
C        3.40457888       3.41175960      -3.41834059
C        2.11909919       3.82308172      -3.05710731
C        1.31280591       3.01582143      -2.24589248
C        1.79111041       1.79111041      -1.79111041
C        3.06988516       1.36665244      -2.13828024
C        3.87285160       2.17599778      -2.94884848
N        5.12768810       5.79591104      -5.58586383
C        5.25522710       6.97018723      -6.35945655
C        4.25478885       7.93648367      -6.49147347
C        4.45928359       9.07207284      -7.28419811
C        5.66840707       9.24550730      -7.94998210
C        6.67625530       8.29360451      -7.82995990
C        6.46840606       7.16029534      -7.03659985
H        5.17289314       3.73877748      -4.42172073
H        1.70531916       4.76993954      -3.38955850
H        0.31563384       3.35803635      -1.98078329
H        3.45072632       0.41147698      -1.78685258
H        4.86727454       1.82168384      -3.20728318
H        5.92931206       5.18595133      -5.58277051
H        3.29588724       7.84124511      -5.99177150
H        3.66463185       9.80890232      -7.37079999
H        7.62327653       8.42168520      -8.34727268
H        7.27049308       6.43089809      -6.95969395
C        5.87732755      10.41310375      -8.76648119
C        6.05229846      11.39096577      -9.45029918
Br       6.33521161      12.97208596     -10.55597504
O       -3.04061314      -6.08279727      -4.61581066
C       -4.05242516      -5.41597364      -4.78982866
N       -4.27423735      -4.15948347      -4.24216638
C       -3.40438684      -3.41218151      -3.41811071
C       -2.14384290      -3.85069588      -3.00474944
C       -1.33766817      -3.04328319      -2.19356846
C       -1.79111041      -1.79111041      -1.79111041
C       -3.04497138      -1.33923705      -2.19060942
C       -3.84790688      -2.14881317      -3.00097780
N       -5.13466265      -5.80955390      -5.56524642
C       -5.27529151      -7.00296886      -6.30661051
C       -4.30190783      -8.00268903      -6.37814913
C       -4.51763689      -9.15572467      -7.14219297
C       -5.71091185      -9.31320952      -7.83977510
C       -6.69178456      -8.32801923      -7.78001592
C       -6.47279436      -7.17734299      -7.01516390
H       -5.15091183      -3.71672910      -4.46575040
H       -1.74990460      -4.81951735      -3.29539525
H       -0.36010386      -3.40704043      -1.88730919
H       -3.40631599      -0.36250966      -1.88023023
H       -4.82254940      -1.77284343      -3.30084873
H       -5.91662469      -5.17585667      -5.60555256
H       -3.35603783      -7.92094114      -5.85192488
H       -3.74406988      -9.91856287      -7.18170141
H       -7.62627640      -8.44348579      -8.32247221
H       -7.25372827      -6.42200744      -6.98534941
C       -5.93134134     -10.49882918      -8.62674198
C       -6.11595103     -11.49178564      -9.28582674
Br      -6.41444929     -13.09731226     -10.35151105
O       -6.02954566       2.99562568       4.71404973
C       -5.41473091       4.05137528       4.79212127
N       -4.18121057       4.29259261       4.20208403
C       -3.41903051       3.41017294       3.40547561
C       -3.80432343       2.10466702       3.09029777
C       -2.99378486       1.29585151       2.28488345
C       -1.79111041       1.79111041       1.79111041
C       -1.38989122       3.08776451       2.09716211
C       -2.20223131       3.89303503       2.90243152
N       -5.85624265       5.17410575       5.47911457
C       -7.07133268       5.33304590       6.18049231
C       -8.05329981       4.34466430       6.28478188
C       -9.23534829       4.58490367       6.99530258
C       -9.44025573       5.81824169       7.60539905
C       -8.47316014       6.81440096       7.51225862
C       -7.29304296       6.57053879       6.80171951
H       -3.78324841       5.20710797       4.34303496
H       -4.73412514       1.67776445       3.45292761
H       -3.31732666       0.28431282       2.05281400
H       -0.45180723       3.48175542       1.71549323
H       -1.86760875       4.90260803       3.12602477
H       -5.24108959       5.97173407       5.48521026
H       -7.93639255       3.36909133       5.82341997
H       -9.98394541       3.79930567       7.06108308
H       -8.62606814       7.78052369       7.98564258
H       -6.55357334       7.36487638       6.74263540
C      -10.65712923       6.06507471       8.33470854
C      -11.67626079       6.27179737       8.94550524
Br     -13.32411033       6.60605043       9.93311185
O        6.08092799      -3.03887847       4.61941461
C        5.43682597      -4.07177599       4.74962550
N        4.17845734      -4.29184498       4.20558489
C        3.41887342      -3.41059689       3.40520874
C        3.83383389      -2.12819510       3.03725923
C        3.02340451      -1.31922089       2.23189441
C        1.79111041      -1.79111041       1.79111041
C        1.36022186      -3.06444515       2.15015083
C        2.17255506      -3.86993919       2.95520360
N        5.86522339      -5.18632357       5.45791600
C        7.09643729      -5.36202959       6.12640401
C        8.11103626      -4.40245334       6.16925639
C        9.30703841      -4.65805504       6.85046108
C        9.49324067      -5.87797957       7.49267623
C        8.49361295      -6.84545443       7.46075234
C        7.29965065      -6.58629506       6.77935554
H        3.75731330      -5.18857370       4.38750435
H        4.78727940      -1.71998799       3.35754982
H        3.37029295      -0.32600244       1.95815809
H        0.39890875      -3.44009410       1.81005303
H        1.81438889      -4.86110331       3.22074936
H        5.22641768      -5.96354497       5.50807126
H        8.00955204      -3.43826816       5.68108365
H       10.08106235      -3.89486833       6.86840348
H        8.63173263      -7.80096823       7.95953354
H        6.53468925      -7.35829624       6.76809964
C       10.72442600      -6.14069370       8.19179280
C       11.75554371      -6.36071678       8.77730292
Br      13.42277384      -6.71647549       9.72402327
C       -0.00445707       0.01189536      -1.78238275
H       -0.66409135       0.67374010      -2.43557963
H        0.65740317      -0.63156657      -2.45157240
C       -0.90989263      -0.90692880      -0.91072765
C        0.90977584       0.90977584      -0.90977584
C       -0.00465871       1.77757030       0.00794375
H       -0.66225468       2.44313916      -0.64384735
H        0.64322798       2.43503045       0.67728295
C       -1.78241447       0.00034974      -0.00472694
H       -2.45427497      -0.65498947       0.64260836
H       -2.43311707       0.67328779      -0.65473579
C       -0.91132561       0.90220522       0.91563759
C       -0.01476271      -0.02253852       1.78660255
H       -0.67934791      -0.69751639       2.42135241
H        0.63392994       0.61504881       2.47327442
C        0.01484550      -1.77751727      -0.01636693
H        0.67870853      -2.42144646      -0.68295456
H       -0.62264859      -2.45592969       0.64226336
C        1.78714474       0.01002794       0.00389507
H        2.44202412       0.67113390       0.66197326
H        2.45385902      -0.65136977      -0.64189061
C        0.91606151      -0.90478549       0.90901405
