117
Properties=species:S:1:pos:R:3 pbc="F F F"
C        0.00000000       0.00000000       0.00000000
O        2.08787762       5.12244387      -3.79918750
C        3.12430092       4.48250963      -3.92170484
N        3.36680083       3.25065634      -3.32871796
C        2.49467485       2.50185557      -2.50843656
C        1.20919517       2.91317770      -2.14720329
C        0.40290188       2.10591741      -1.33598846
C        0.88120639       0.88120639      -0.88120639
C        2.15998114       0.45674842      -1.22837621
C        2.96294758       1.26609376      -2.03894445
N        4.21778408       4.88600701      -4.67595980
C        4.34532307       6.06028321      -5.44955253
C        3.34488483       7.02657964      -5.58156945
C        3.54937956       8.16216881      -6.37429409
C        4.75850305       8.33560327      -7.04007808
C        5.76635128       7.38370048      -6.92005588
C        5.55850204       6.25039132      -6.12669583
H        4.26298911       2.82887345      -3.51181670
H        0.79541514       3.86003551      -2.47965448
H       -0.59427018       2.44813232      -1.07087927
H        2.54082230      -0.49842704      -0.87694855
H        3.95737052       0.91177981      -2.29737915
H        5.01940804       4.27604731      -4.67286649
H        2.38598322       6.93134109      -5.08186748
H        2.75472783       8.89899829      -6.46089597
H        6.71337250       7.51178118      -7.43736865
H        6.36058906       5.52099406      -6.04978993
C        4.96742353       9.50319972      -7.85657717
C        5.14239443      10.48106175      -8.54039516
Br       5.42530758      12.06218194      -9.64607101
O       -2.10933926      -5.14889352      -3.75127622
C       -3.13341445      -4.49484802      -3.90025292
N       -3.36555041      -3.25007984      -3.33054489
C       -2.49457366      -2.50207255      -2.50832077
C       -1.22160527      -2.92766524      -2.12030565
C       -0.41537362      -2.12032695      -1.30910718
C       -0.88120639      -0.88120639      -0.88120639
C       -2.14748276      -0.44236249      -1.25526052
C       -2.95043165      -1.25182708      -2.06572705
N       -4.22123720      -4.89312437      -4.66538932
C       -4.35530662      -6.07741044      -5.42244175
C       -3.36841270      -7.06122016      -5.52340105
C       -3.57850433      -8.20592875      -6.30140939
C       -4.77966573      -8.37098344      -6.98353523
C       -5.77400891      -7.40163850      -6.89446023
C       -5.56060980      -6.25925174      -6.11572763
H       -4.25194545      -2.81728890      -3.53444493
H       -0.81777815      -3.88604734      -2.43127964
H        0.57196165      -2.47384621      -1.02285685
H       -2.51854393       0.52412143      -0.92492131
H       -3.93493059      -0.88614872      -2.34545018
H       -5.01301357      -4.27072330      -4.68458497
H       -2.41605511      -6.97306661      -5.01007006
H       -2.79440854      -8.95638646      -6.36382708
H       -6.71473558      -7.52309189      -7.42469486
H       -6.35210545      -5.51626220      -6.06300541
C       -4.99431879      -9.54800003      -7.78488160
C       -5.17409072     -10.53375143      -8.45600918
Br      -5.46476674     -12.12762806      -9.54116573
O       -5.10423451       2.07424481       3.83102968
C       -4.49818110       3.13603369       3.89430060
N       -3.27211422       3.38286572       3.29119519
C       -2.50916725       2.50014890       2.49565084
C       -2.88558558       1.18853775       2.19545283
C       -2.07501711       0.37976774       1.39002289
C       -0.88120639       0.88120639       0.88120639
C       -0.48886478       2.18402572       1.17221528
C       -1.30120432       2.98923382       1.97754764
N       -4.94359267       4.26089677       4.57526145
C       -6.15381154       4.41534501       5.28600226
C       -7.12597871       3.41930201       5.40775319
C       -8.30380195       3.65541616       6.12662435
C       -8.51429163       4.89228180       6.72761096
C       -7.55696568       5.89606987       6.61707208
C       -6.38104149       5.65631600       5.89823169
H       -2.88108354       4.30207728       3.42051845
H       -3.80831139       0.75669079       2.57010295
H       -2.39157355      -0.63661408       1.16978194
H        0.44226771       2.58286715       0.77874436
H       -0.97362531       4.00367244       2.18923173
H       -4.33553757       5.06394666       4.56883761
H       -7.00446499       2.44072895       4.95399785
H       -9.04476330       2.86385783       6.20600095
H       -7.71428704       6.86498273       7.08325256
H       -5.64922565       6.45659230       5.82555511
C       -9.72683003       5.13484901       7.46552138
C      -10.74233094       5.33799904       8.08352135
Br     -12.38431002       5.66647547       9.08277504
O        5.15928307      -2.11835514       3.73187078
C        4.52188333      -3.15687526       3.84975680
N        3.26919125      -3.38213499       3.29484890
C        2.50900842      -2.50059249       2.49536608
C        2.91717933      -1.21250577       2.13989105
C        2.10672359      -0.40356885       1.33451530
C        0.88120639      -0.88120639       0.88120639
C        0.45710661      -2.16027747       1.22772169
C        1.26944267      -2.96571817       2.03282495
N        4.95329342      -4.27345094       4.55300653
C        6.18084094      -4.44506196       5.22925591
C        7.18799102      -3.47842242       5.28662048
C        8.38082506      -3.73027654       5.97474087
C        8.57131456      -4.95350987       6.60935997
C        7.57911315      -5.92801857       6.56297592
C        6.38829402      -5.67259062       5.87470455
H        2.85335398      -4.28324215       3.46708313
H        3.86521543      -0.79970055       2.47018915
H        2.44826983       0.59415642       1.07062800
H       -0.49889183      -2.54043778       0.87779787
H        0.91666414      -3.96141138       2.28845396
H        4.31988957      -5.05567928       4.59275299
H        7.08297367      -2.51143070       4.80478741
H        9.14904461      -2.96159419       6.00398328
H        7.72062231      -6.88614932       7.05575070
H        5.62915257      -6.45006991       5.85215057
C        9.79925116      -5.21235049       7.31559877
C       10.82764806      -5.42912951       7.90707376
Br      12.49047887      -5.77964286       8.86343880
