106
Properties=species:S:1:pos:R:3 pbc="F F F"
N        2.03253239      -2.58759838      -4.13014829
N        2.91130147      -2.33217520      -3.06349434
C        3.09144697      -1.06897322      -2.51838190
S        3.99850871      -0.92555315      -1.12381552
N        2.52616057      -0.05911221      -3.28203702
C        2.47654087       1.31729685      -2.93657430
C        1.79942891       1.79942891      -1.79942891
C        1.78301734       3.16919695      -1.51541893
C        2.40502019       4.05870440      -2.38162114
F        2.37047389       5.37081423      -2.11271128
C        3.02708205       3.61818957      -3.54003222
C        3.05014950       2.25173379      -3.82163293
H        2.50087970      -2.38077537      -5.01323358
H        1.22655607      -1.96043563      -4.05048521
H        3.25918182      -3.11896763      -2.51255557
H        2.71378117      -0.23665794      -4.26305518
H        1.26410223       3.55996273      -0.64437688
H        3.48041794       4.34454269      -4.20541256
C        3.69754959       1.83324814      -5.03791533
C        4.23974716       1.48276640      -6.05655184
Br       5.11643479       0.91606708      -7.70360093
N       -1.49098396      -4.46916254       2.38506420
N       -0.47522459      -4.58850065       1.42110462
C       -0.59143719      -4.08341078       0.13399232
S        0.75569106      -4.09998786      -0.85247428
N       -1.88156345      -3.68556068      -0.18196124
C       -2.28648248      -3.05555258      -1.38837696
C       -1.79942891      -1.79942891      -1.79942891
C       -2.24118349      -1.22860275      -2.99784698
C       -3.19341546      -1.88807853      -3.76385175
F       -3.62490065      -1.32742870      -4.90167004
C       -3.73500172      -3.09686806      -3.35343406
C       -3.29086065      -3.67094556      -2.16171001
H       -2.17062077      -5.21997867       2.25726154
H       -1.97850253      -3.57975988       2.24165676
H        0.46564584      -4.84433160       1.72591600
H       -2.53937000      -4.37223816       0.17142975
H       -1.87866099      -0.25965750      -3.33012335
H       -4.49497603      -3.57028996      -3.96510720
C       -3.88276099      -4.92197131      -1.76398076
C       -4.37847752      -5.96970538      -1.43088251
Br      -5.18000923      -7.66380275      -0.89229082
N       -1.37078473       4.53554823      -2.33125067
N       -0.37029806       4.62016420      -1.34784165
C       -0.51798795       4.09493472      -0.07206702
S        0.81158398       4.07057516       0.93777990
N       -1.82020898       3.71451717       0.21435921
C       -2.25725975       3.07091032       1.40224194
C       -1.79942891       1.79942891       1.79942891
C       -2.27213503       1.21577559       2.97972260
C       -3.22615950       1.87857467       3.74061157
F       -3.68735190       1.30596529       4.86068220
C       -3.73933937       3.10368905       3.34227543
C       -3.26430932       3.69043431       2.16877259
H       -2.03943484       5.29592399      -2.20202092
H       -1.87613034       3.65254293      -2.21206763
H        0.58011157       4.86458401      -1.63170268
H       -2.45964653       4.41874318      -0.13821130
H       -1.93241882       0.23495268       3.30107034
H       -4.50166862       3.57977384       3.94893075
C       -3.82727867       4.95844068       1.78299370
C       -4.29876551       6.02039602       1.45990389
Br      -5.06111984       7.73748798       0.93749498
N        0.25624368       1.68063851       4.99947713
N        1.38223336       1.93855780       4.19894505
C        2.02980162       0.95458664       3.46564067
S        3.22188661       1.41675427       2.39163873
N        1.62350810      -0.32918314       3.79639412
C        2.04533125      -1.52595498       3.15912579
C        1.79942891      -1.79942891       1.79942891
C        2.23692134      -3.00027855       1.23043332
C        2.88188210      -3.94158313       2.02188050
F        3.28270358      -5.09689523       1.47440058
C        3.08363703      -3.72504097       3.37662584
C        2.65382723      -2.52514086       3.94454813
H        0.55937188       1.33803574       5.91200178
H       -0.29958614       0.94199544       4.55818723
H        1.60280101       2.90597559       3.95594433
H        1.53361241      -0.40236013       4.80420586
H        2.05444668      -3.22983671       0.18415845
H        3.56852876      -4.49365015       3.96819429
C        2.87286845      -2.34012965       5.35571495
C        3.05631548      -2.18518277       6.53756716
Br       3.35293381      -1.93464676       8.44852223
C       -0.00445707       0.01189536      -1.78238275
H       -0.66409135       0.67374010      -2.43557963
H        0.65740317      -0.63156657      -2.45157240
C       -0.90989263      -0.90692880      -0.91072765
C        0.90977584       0.90977584      -0.90977584
C       -0.00465871       1.77757030       0.00794375
H       -0.66225468       2.44313916      -0.64384735
H        0.64322798       2.43503045       0.67728295
C       -1.78241447       0.00034974      -0.00472694
H       -2.45427497      -0.65498947       0.64260836
H       -2.43311707       0.67328779      -0.65473579
C       -0.91132561       0.90220522       0.91563759
C       -0.01476271      -0.02253852       1.78660255
H       -0.67934791      -0.69751639       2.42135241
H        0.63392994       0.61504881       2.47327442
C        0.01484550      -1.77751727      -0.01636693
H        0.67870853      -2.42144646      -0.68295456
H       -0.62264859      -2.45592969       0.64226336
C        1.78714474       0.01002794       0.00389507
H        2.44202412       0.67113390       0.66197326
H        2.45385902      -0.65136977      -0.64189061
C        0.91606151      -0.90478549       0.90901405
