169
Properties=species:S:1:pos:R:3 pbc="F F F"
C        0.00000000       0.00000000       0.00000000
C        6.81731583       1.29314663      -2.83756120
O        5.48732470       1.27562122      -3.35918726
C        5.37772694       1.73523771      -4.63319748
O        6.31189257       2.08948172      -5.33776879
C        3.93992151       1.75114098      -5.07192624
C        3.24781066       3.06721124      -4.68172585
O        3.34790941       3.23394771      -3.23640695
C        2.50405562       2.46637465      -2.49305459
C        2.88206845       2.20066965      -1.17721398
C        2.07132417       1.39884537      -0.37099630
C        0.88174332       0.88174332      -0.88174332
C        0.48682416       1.16726847      -2.18812199
C        1.30867902       1.96718959      -2.98989077
C        0.90027473       2.34410632      -4.35391209
O       -0.18995155       1.97411213      -4.77775348
N        1.81963301       3.10352986      -5.07253620
C        1.38840047       3.68606505      -6.31062796
C        2.00905811       3.34360495      -7.52051793
C        1.58926695       3.90595360      -8.73024336
C        0.53757253       4.81499530      -8.74425761
Br      -0.01609379       5.57860372     -10.38225205
C       -0.10076327       5.17131720      -7.56104588
C        0.32238549       4.61302864      -6.34898634
Cl      -0.43201914       5.21560370      -4.90910568
C        3.98823819       4.35335007      -5.17332659
O        3.91936995       5.45166578      -4.62998541
O        4.63279923       4.14234202      -6.35787768
C        5.26419707       5.30538595      -6.89825923
H        7.30853655       2.25142835      -3.03291999
H        7.39459649       0.46715182      -3.26319055
H        6.75434955       1.15746955      -1.75419814
H        3.44365681       0.87738863      -4.63194053
H        3.92931341       1.56912956      -6.14944128
H        3.81027100       2.60493380      -0.77981797
H        2.37571875       1.18638890       0.65199930
H       -0.45240539       0.78619401      -2.57998839
H        2.80746249       2.61217768      -7.56855391
H        2.08773875       3.61946991      -9.65410456
H       -0.91164455       5.89394631      -7.57262835
H        5.83391440       5.00209806      -7.78112263
H        5.95632873       5.74654889      -6.17473117
H        4.50734912       6.03342175      -7.20669505
C       -2.90914181      -1.24231470      -6.79656715
O       -2.27282447      -2.04708595      -5.80222276
C       -2.31359129      -3.38247230      -6.05009853
O       -2.78870091      -3.89966519      -7.05077697
C       -1.68930078      -4.15326324      -4.92042470
C       -2.71465206      -4.46410008      -3.81799562
O       -3.27490591      -3.20660823      -3.33674993
C       -2.47321271      -2.48046506      -2.50980708
C       -2.71465452      -1.10887862      -2.43641895
C       -1.91071323      -0.30543779      -1.62501482
C       -0.88174332      -0.88174332      -0.88174332
C       -0.65430646      -2.25648526      -0.93142290
C       -1.46175441      -3.05237339      -1.75163158
C       -1.29617711      -4.51551233      -1.78660370
O       -0.45754087      -5.04204826      -1.06232492
N       -2.12455137      -5.19699840      -2.67414930
C       -2.16714651      -6.62849812      -2.58944884
C       -1.77385660      -7.42451289      -3.67481149
C       -1.80992947      -8.82031384      -3.59522061
C       -2.23529764      -9.43723853      -2.42428927
Br      -2.29146706     -11.32415698      -2.32913794
C       -2.62761540      -8.67472109      -1.32926332
C       -2.59700357      -7.27744462      -1.40995228
Cl      -3.23368410      -6.40537996      -0.05362618
C       -4.00755003      -5.18120933      -4.32615549
O       -5.10536014      -5.11408533      -3.78157567
O       -3.74709702      -5.99634993      -5.38957199
C       -4.87748417      -6.74040996      -5.84994812
H       -3.89469520      -1.63945122      -7.05873847
H       -2.27092050      -1.17179796      -7.68222040
H       -3.04564129      -0.24036998      -6.38000596
H       -0.84089910      -3.56954155      -4.54254532
H       -1.24338550      -5.05309371      -5.35140505
H       -3.51794230      -0.66049464      -3.01658582
H       -2.09699493       0.76576936      -1.57888278
H        0.13083665      -2.71124697      -0.33336669
H       -1.39877809      -6.99355422      -4.59586177
H       -1.49623407      -9.41266296      -4.45241619
H       -2.97481963      -9.15901328      -0.42109719
H       -4.58539333      -7.27149874      -6.76024303
H       -5.71213425      -6.07505537      -6.09041918
H       -5.17230155      -7.47811670      -5.09704767
C       -6.05128837       0.49994806       4.39678723
O       -4.69639346       0.94557764       4.48016208
C       -4.44342482       1.78207660       5.52066071
O       -5.25419964       2.11010790       6.37483553
C       -3.01784729       2.25812007       5.48702136
C       -2.86562723       3.51545303       4.61566749
O       -3.33882027       3.20867049       3.27077331
C       -2.49514373       2.46585901       2.50248211
C       -3.06478338       1.73478774       1.46038096
C       -2.25570979       0.93366835       0.65178770
C       -0.88174332       0.88174332       0.88174332
C       -0.30463200       1.63214351       1.90543910
C       -1.12442369       2.42761629       2.71371940
C       -0.54938147       3.28312450       3.76578717
O        0.66822086       3.31826451       3.91187040
N       -1.46608850       3.99365805       4.53595252
C       -0.96102032       5.00643261       5.41764055
C       -1.15513496       4.91468189       6.80336414
C       -0.66100932       5.89756786       7.66688673
C        0.03958944       6.98298732       7.15342755
Br       0.69434947       8.31248372       8.32662773
C        0.25194875       7.09968753       5.78386102
C       -0.24704715       6.11908349       4.91826983
Cl      -0.06057173       6.41229837       3.21982015
C       -3.82831983       4.68531895       5.00127606
O       -4.22165749       5.55244755       4.22691610
O       -4.09018831       4.70204353       6.34078709
C       -4.90355145       5.79771129       6.76657950
H       -6.75166965       1.33358226       4.50763297
H       -6.23775953      -0.26701873       5.15419806
H       -6.19928244       0.06035262       3.40638218
H       -2.39428648       1.42967695       5.12902253
H       -2.70680435       2.41882667       6.52225324
H       -4.13683705       1.77636854       1.28181718
H       -2.70651331       0.35745500      -0.15385997
H        0.76933032       1.61285870       2.07024863
H       -1.66107634       4.07023634       7.25688141
H       -0.82436556       5.79878879       8.73815886
H        0.78571448       7.95691718       5.38372741
H       -5.13708913       5.65468724       7.82535872
H       -5.84285711       5.82846064       6.20629103
H       -4.35362945       6.73760336       6.65623312
C        0.97421440      -6.64706240       3.32674686
O        1.79658109      -5.76542517       2.56012692
C        3.11005944      -6.11163871       2.52446398
O        3.58953201      -7.11265426       3.03695681
C        3.90921017      -5.09194897       1.76182958
C        4.37575771      -3.94634316       2.67464688
O        3.20257336      -3.33116106       3.28452965
C        2.47781485      -2.51016267       2.47550734
C        1.13757490      -2.31456378       2.80781339
C        0.33466364      -1.50323924       2.00326296
C        0.88174332      -0.88174332       0.88174332
C        2.22788862      -1.05300783       0.56131817
C        3.02293025      -1.87225791       1.37057121
C        4.46278776      -2.03127610       1.10422928
O        4.97364274      -1.41126756       0.17700375
N        5.14086274      -2.90720863       1.94762770
C        6.57378762      -2.92993385       1.88137201
C        7.25777669      -4.09853390       1.51687039
C        8.65433391      -4.12406266       1.44706735
C        9.38406556      -2.97664837       1.73611151
Br      11.27168770      -3.02300668       1.65006759
C        8.73400377      -1.80108157       2.09651446
C        7.33632047      -1.77614193       2.17193807
Cl       6.61473049      -0.31486724       2.76309250
C        5.15201504      -4.41458411       3.94831570
O        5.20846166      -3.78954194       5.00301753
O        5.86679718      -5.55335345       3.71286830
C        6.66077771      -5.98773668       4.81932786
H        1.42619212      -6.86800628       4.29868649
H        0.79187217      -7.56793975       2.76512693
H        0.01799339      -6.14607070       3.50195315
H        3.29046778      -4.73181451       0.93070368
H        4.73907555      -5.62150421       1.28730449
H        0.71200435      -2.79978128       3.68323714
H       -0.71303519      -1.36176205       2.26138149
H        2.66247205      -0.54919542      -0.29789045
H        6.73467423      -5.00814691       1.24537295
H        9.15817085      -5.04442597       1.15871640
H        9.30708493      -0.91036813       2.33747705
H        7.10156451      -6.95465835       4.56091223
H        6.04607244      -6.11622136       5.71531499
H        7.47077636      -5.27464239       5.00204717
