177
Properties=species:S:1:pos:R:3 pbc="F F F"
C        0.00000000       0.00000000       0.00000000
C        6.81731583       1.29314663      -2.83756120
O        5.48732470       1.27562122      -3.35918726
C        5.37772694       1.73523771      -4.63319748
O        6.31189257       2.08948172      -5.33776879
C        3.93992151       1.75114098      -5.07192624
C        3.24781066       3.06721124      -4.68172585
O        3.34790941       3.23394771      -3.23640695
C        2.50405562       2.46637465      -2.49305459
C        2.88206845       2.20066965      -1.17721398
C        2.07132417       1.39884537      -0.37099630
C        0.88174332       0.88174332      -0.88174332
C        0.48682416       1.16726847      -2.18812199
C        1.30867902       1.96718959      -2.98989077
C        0.90027473       2.34410632      -4.35391209
O       -0.18995155       1.97411213      -4.77775348
N        1.81963301       3.10352986      -5.07253620
C        1.38840047       3.68606505      -6.31062796
C        2.00905811       3.34360495      -7.52051793
C        1.58926695       3.90595360      -8.73024336
C        0.53757253       4.81499530      -8.74425761
C       -0.10076327       5.17131720      -7.56104588
C        0.32238549       4.61302864      -6.34898634
Cl      -0.43201914       5.21560370      -4.90910568
C        3.98823819       4.35335007      -5.17332659
O        3.91936995       5.45166578      -4.62998541
O        4.63279923       4.14234202      -6.35787768
C        5.26419707       5.30538595      -6.89825923
H        7.30853655       2.25142835      -3.03291999
H        7.39459649       0.46715182      -3.26319055
H        6.75434955       1.15746955      -1.75419814
H        3.44365681       0.87738863      -4.63194053
H        3.92931341       1.56912956      -6.14944128
H        3.81027100       2.60493380      -0.77981797
H        2.37571875       1.18638890       0.65199930
H       -0.45240539       0.78619401      -2.57998839
H        2.80746249       2.61217768      -7.56855391
H        2.08773875       3.61946991      -9.65410456
H       -0.91164455       5.89394631      -7.57262835
H        5.83391440       5.00209806      -7.78112263
H        5.95632873       5.74654889      -6.17473117
H        4.50734912       6.03342175      -7.20669505
C        0.11576517       5.39674577      -9.99215381
C       -0.23749849       5.88396180     -11.03726688
Br      -0.80869595       6.67174890     -12.72712632
C       -1.11961145      -6.73730838      -3.09110383
O       -1.93431833      -5.79101341      -2.39680143
C       -3.26170066      -6.08149437      -2.40296710
O       -3.76202086      -7.08300763      -2.89411458
C       -4.04719418      -4.99850433      -1.71729021
C       -4.42691749      -3.87469582      -2.69513444
O       -3.20470048      -3.33442514      -3.27913846
C       -2.47928567      -2.51000818      -2.47419101
C       -1.11948994      -2.38359643      -2.75686571
C       -0.31628753      -1.57221677      -1.95266153
C       -0.88174332      -0.88174332      -0.88174332
C       -2.24591358      -0.98412761      -0.61217342
C       -3.04140539      -1.80394037      -1.42041361
C       -4.49639610      -1.89257622      -1.20932082
O       -5.01782299      -1.21333477      -0.33075630
N       -5.17614332      -2.77520016      -2.04435559
C       -6.61024627      -2.73657829      -2.03826891
C       -7.35765543      -3.85971422      -1.65581133
C       -8.75571810      -3.82522447      -1.64452135
C       -9.42355122      -2.66232215      -2.01095207
C       -8.70988112      -1.53067236      -2.39104632
C       -7.31048998      -1.56603536      -2.40787513
Cl      -6.50383861      -0.16191455      -3.02693707
C       -5.16976358      -4.36464120      -3.98051007
O       -5.15646202      -3.78326786      -5.06129126
O       -5.94137509      -5.46223363      -3.72941021
C       -6.70729765      -5.91054083      -4.85000376
H       -1.54053365      -6.98078242      -4.07156882
H       -0.99970021      -7.64012502      -2.48511362
H       -0.13658211      -6.28367495      -3.24576018
H       -3.44812631      -4.62888142      -0.87597824
H       -4.91752067      -5.47307090      -1.25729268
H       -0.67957713      -2.92259579      -3.59284985
H        0.74614474      -1.48473464      -2.17151845
H       -2.69337037      -0.42688789       0.20648125
H       -6.88525556      -4.77754179      -1.32539673
H       -9.30961609      -4.71114966      -1.34054747
H       -9.23422337      -0.62837200      -2.69233473
H       -7.19901473      -6.84679087      -4.57132949
H       -6.06255835      -6.10202317      -5.71302726
H       -7.47808144      -5.17340160      -5.09598288
C      -10.86330108      -2.63609073      -2.00527294
C      -12.06909159      -2.61412192      -2.00051668
Br     -14.01875286      -2.57860022      -1.99282620
C       -6.92735605       1.75672875       2.26393885
O       -5.67275451       1.53786627       2.91151240
C       -5.66090987       1.85172988       4.23352237
O       -6.62771626       2.23569849       4.87572833
C       -4.28707020       1.66217681       4.81374171
C       -3.42666916       2.92494937       4.64512922
O       -3.34688484       3.24647049       3.22490875
C       -2.50661543       2.46791178       2.48895765
C       -2.75960844       2.38003556       1.12030808
C       -1.94847361       1.57765392       0.31503831
C       -0.88174332       0.88174332       0.88174332
C       -0.60898169       0.98827142       2.24496151
C       -1.43079336       1.79046442       3.04450160
C       -1.14196127       1.98002865       4.47630322
O       -0.14890732       1.44942803       4.96357871
N       -2.05492301       2.76148054       5.17929551
C       -1.70871642       3.16443401       6.51194305
C       -2.49233905       2.77365610       7.60718584
C       -2.15629640       3.16079048       8.90837705
C       -1.02667659       3.94020017       9.12994868
C       -0.22717181       4.34001562       8.06441238
C       -0.56586357       3.95750618       6.76103072
Cl       0.40193275       4.61359245       5.48103054
C       -4.08428837       4.22990655       5.20071993
O       -3.84477574       5.36266151       4.79358388
O       -4.87547174       3.97430990       6.28323729
C       -5.44316080       5.14044916       6.88423228
H       -7.33841387       2.73946016       2.51501085
H       -7.62888140       0.96200702       2.53405043
H       -6.75736466       1.72458323       1.18406935
H       -3.83510579       0.78706665       4.33081352
H       -4.41564634       1.37260226       5.85963565
H       -3.59200130       2.92369745       0.67932402
H       -2.15614440       1.50469465      -0.75073071
H        0.23726603       0.46685555       2.68418749
H       -3.36063500       2.13520608       7.49235301
H       -2.78144144       2.84044702       9.73942476
H        0.64589245       4.96236918       8.23845338
H       -6.13583576       4.81560324       7.66569609
H       -6.00191657       5.72696019       6.14873203
H       -4.65623396       5.74432457       7.34690739
C       -0.69096530       4.34244723      10.47125223
C       -0.40980708       4.67932915      11.59459396
Br       0.04480196       5.22403872      13.41094252
C        0.84949794      -6.54726475       3.55126097
O        1.67383671      -5.72972037       2.71857610
C        2.97044820      -6.12960549       2.64610844
O        3.43108334      -7.12853191       3.17952782
C        3.77710532      -5.17313572       1.81274768
C        4.32393749      -4.01278595       2.66002432
O        3.20089801      -3.32779190       3.28957417
C        2.47647130      -2.51020150       2.47681205
C        1.15924819      -2.24815022       2.85255367
C        0.35659630      -1.43690216       2.04766738
C        0.88174332      -0.88174332       0.88174332
C        2.20628136      -1.11927629       0.51665697
C        3.00095859      -1.93793918       1.32686161
C        4.42171176      -2.16492313       1.01165824
O        4.91844808      -1.60227986       0.04118611
N        5.09878632      -3.03415519       1.86275756
C        6.52593552      -3.11704324       1.74211471
C        7.14901361      -4.32542862       1.39873876
C        8.53960072      -4.40979018       1.27607302
C        9.32418698      -3.28233914       1.49029932
C        8.73508783      -2.06852101       1.82799096
C        7.34357970      -1.98448502       1.95633575
Cl       6.70339226      -0.47360489       2.51569309
C        5.13211170      -4.46227413       3.92052902
O        5.25506101      -3.79969569       4.94626444
O        5.79227924      -5.63712393       3.70361576
C        6.61273252      -6.05998520       4.79512453
H        1.33132303      -6.74846403       4.51309782
H        0.60924377      -7.48108854       3.03460655
H       -0.07881532      -6.00181702       3.74301554
H        3.13982110      -4.82081030       0.99235456
H        4.56611587      -5.75359335       1.32817503
H        0.75079157      -2.68164572       3.76258548
H       -0.67361804      -1.24352360       2.34020278
H        2.62510802      -0.66695039      -0.37828140
H        6.58063511      -5.22308157       1.18447741
H        8.99546843      -5.36013484       1.00570994
H        9.35140823      -1.19292911       2.01059277
H        7.00505220      -7.05312219       4.55896070
H        6.03005608      -6.12890092       5.71865179
H        7.45639096      -5.37351730       4.91755766
C       10.75601825      -3.37798004       1.37066647
C       11.95517694      -3.45807930       1.27047396
Br      13.89411513      -3.58759302       1.10847113
