181
Properties=species:S:1:pos:R:3 pbc="F F F"
C        0.00000000       0.00000000       0.00000000
C        0.88157173       0.88157173      -0.88157173
C        1.51500624       0.33474877      -1.99471646
C        2.30176704       1.14808984      -2.81622546
C        2.47204509       2.51085578      -2.52937382
C        1.82146482       3.04177517      -1.40115750
C        1.03329507       2.23100175      -0.57964206
C        3.22252616       3.45146250      -3.45576080
N        4.39949008       2.87819814      -4.13038192
C        5.67230121       2.92950361      -3.55302013
C        5.79990565       3.50510462      -2.15895324
C        6.74528226       2.47888736      -4.23031740
C        8.17982924       2.56996422      -3.78507273
C        6.55062422       1.84971479      -5.56468452
O        7.52357608       1.40290279      -6.17371785
N        5.26554523       1.81082531      -6.05380071
C        5.04793353       1.18890009      -7.35328847
C        4.72216528      -0.28698311      -7.23646221
C        3.39001234      -0.71936341      -7.13903832
C        3.09097476      -2.07919376      -7.03010375
C        4.12255423      -3.01454039      -7.01107702
C        5.45119895      -2.60242727      -7.09426117
C        5.74870409      -1.24270688      -7.20359280
C        4.17015472       2.34684050      -5.40204377
O        3.04868432       2.35093662      -5.91768443
H        1.39032334      -0.71545451      -2.24404960
H        2.75839150       0.70051153      -3.69659783
H        1.90727517       4.09994306      -1.16336873
H        0.53053448       2.66583198       0.28112937
H        3.53086783       4.35303573      -2.91360469
H        2.50389655       3.81009656      -4.20406592
H        5.07614310       3.04902568      -1.47701860
H        5.64633942       4.58901628      -2.17468703
H        6.77646584       3.32078874      -1.70218686
H        8.84665158       2.77732628      -4.62932738
H        8.49461480       1.63098236      -3.32059834
H        8.35154194       3.38738804      -3.07997551
H        5.93560102       1.31329591      -7.98591645
H        4.23644494       1.69968806      -7.88560139
H        2.57561445       0.00404166      -7.14939072
H        2.05351196      -2.39546247      -6.96269690
H        6.26025496      -3.32792971      -7.07559995
H        6.79078958      -0.93115416      -7.26476806
C        3.81493034      -4.41717105      -6.90339798
C        3.55729534      -5.59187423      -6.81321679
Br       3.14072132      -7.49126991      -6.66740144
C       -0.88157173      -0.88157173      -0.88157173
C       -1.96102271      -0.32249312      -1.56095565
C       -2.75284240      -1.12503509      -2.38820484
C       -2.48161738      -2.49348501      -2.53717230
C       -1.38540635      -3.03604590      -1.84294524
C       -0.59167590      -2.23537890      -1.01688409
C       -3.24419763      -3.37450920      -3.51104262
N       -4.68013813      -3.07816467      -3.64976734
C       -5.63647708      -3.68733341      -2.83101445
C       -5.15061954      -4.59328352      -1.72006046
C       -6.94869812      -3.46766226      -3.03812664
C       -8.08660583      -4.13458977      -2.31367059
C       -7.36666245      -2.50516034      -4.09320075
O       -8.56414136      -2.27238760      -4.26366776
N       -6.36686230      -1.92469731      -4.83861164
C       -6.75057592      -0.96967141      -5.86987477
C       -6.77371710       0.45530050      -5.35322778
C       -5.63219798       1.26745657      -5.44494585
C       -5.65410626       2.57969458      -4.96747307
C       -6.81556141       3.08565659      -4.38918604
C       -7.95408872       2.28967641      -4.27862054
C       -7.93094192       0.97814329      -4.75679138
C       -5.02191872      -2.20857506      -4.68854522
O       -4.16960170      -1.71509474      -5.43260893
H       -2.18537639       0.73679611      -1.47033814
H       -3.56981000      -0.65439414      -2.93129673
H       -1.12750916      -4.08689961      -1.95617818
H        0.25774917      -2.67433622      -0.49865005
H       -3.12630638      -4.43040315      -3.24079872
H       -2.75004020      -3.28121401      -4.48680483
H       -4.37564316      -4.10336187      -1.12318235
H       -4.75231647      -5.52659476      -2.13113150
H       -5.93417991      -4.86012002      -1.00514151
H       -8.92396914      -4.33944520      -2.98989090
H       -8.44784485      -3.49595020      -1.50240046
H       -7.81060182      -5.10809054      -1.90021313
H       -7.73925657      -1.22357666      -6.27198015
H       -6.06316164      -1.03679980      -6.72177296
H       -4.71737147       0.88057305      -5.89224840
H       -4.76293814       3.19559551      -5.05340375
H       -8.86180076       2.67822288      -3.82434731
H       -8.82540432       0.36349344      -4.66249260
C       -6.84046518       4.44006202      -3.90075412
C       -6.86132208       5.57437657      -3.49169239
Br      -6.89504593       7.40846725      -2.83027416
C       -0.88157173       0.88157173       0.88157173
C       -0.90030964       0.68417467       2.25998717
C       -1.68826433       1.50822908       3.06958894
C       -2.47195782       2.52918775       2.51112912
C       -2.43600491       2.71136560       1.11702698
C       -1.64787404       1.88993304       0.30613180
C       -3.25115167       3.51679079       3.36180700
N       -3.85361363       2.96656566       4.58789086
C       -5.14190138       2.42220025       4.59072332
C       -5.87482753       2.31868775       3.27044823
C       -5.70321511       2.00861561       5.74265630
C       -7.11170866       1.50782468       5.91533285
C       -4.90669318       2.05980048       6.99852986
O       -5.40151519       1.64945426       8.04922727
N       -3.63730603       2.58237188       6.91049334
C       -2.83346259       2.63200534       8.12465417
C       -1.98048566       1.39116281       8.29999592
C       -0.67251259       1.34529073       7.79188393
C        0.11206340       0.20118144       7.95276670
C       -0.40886363      -0.90656344       8.61679066
C       -1.70947182      -0.88315357       9.11671460
C       -2.49255986       0.26144760       8.95558255
C       -3.08424748       3.08687431       5.74791719
O       -1.96732888       3.61221946       5.73775703
H       -0.29420032      -0.09290006       2.71761816
H       -1.65834847       1.35129066       4.14586173
H       -3.00834816       3.51087180       0.65136699
H       -1.62701938       2.05659181      -0.76837410
H       -4.03768074       3.99413694       2.76569057
H       -2.56462621       4.33354240       3.61989043
H       -5.24865031       1.84480639       2.50873068
H       -6.17907297       3.31048243       2.92048732
H       -6.77584126       1.70085525       3.32274492
H       -7.54182313       1.84741481       6.86406729
H       -7.13142101       0.41425005       5.90052444
H       -7.79032445       1.88345195       5.14512909
H       -3.48057908       2.75177521       9.00245908
H       -2.18822413       3.51876589       8.11474438
H       -0.25642693       2.20485038       7.26776952
H        1.12469818       0.18670829       7.55873627
H       -2.12236310      -1.74644355       9.63200564
H       -3.50902182       0.26799316       9.34738849
C        0.40098922      -2.08500167       8.78714817
C        1.07924099      -3.07194370       8.92982258
Br       2.17591672      -4.66774547       9.16051504
C        0.88157173      -0.88157173       0.88157173
C        2.17541275      -0.47335400       1.19570473
C        2.97351347      -1.26873948       2.02382939
C        2.49239614      -2.48249161       2.53738694
C        1.18219842      -2.87382001       2.20837906
C        0.38220083      -2.07955211       1.38218596
C        3.28218730      -3.31832088       3.52924128
N        4.74004707      -3.34584904       3.32217403
C        5.34596163      -4.30480070       2.50406261
C        4.45202521      -5.26403274       1.74790555
C        6.68741224      -4.36363117       2.40344362
C        7.47773680      -5.40246609       1.65466331
C        7.51413634      -3.34506499       3.10582220
O        8.74002329      -3.37141789       2.98875554
N        6.84419397      -2.41710586       3.86887143
C        7.63126665      -1.40212656       4.55672888
C        7.80027475      -0.14549600       3.72587364
C        6.88563387       0.91374031       3.83779369
C        7.04144353       2.07049545       3.07093666
C        8.10898827       2.17237451       2.18247710
C        9.01940309       1.12572427       2.04935403
C        8.86270809      -0.02993723       2.81694469
C        5.47281840      -2.40112902       4.04509158
O        4.92688073      -1.59092887       4.79949578
H        2.56735810       0.46745688       0.81901720
H        3.96844232      -0.90903308       2.27802546
H        0.76514028      -3.79447719       2.61096948
H       -0.63190860      -2.39676260       1.15038309
H        2.90791977      -4.34867504       3.54091344
H        3.05689218      -2.93014330       4.53102356
H        3.66516020      -4.72746571       1.20956147
H        3.99289258      -5.98369246       2.43345769
H        4.98181957      -5.83647000       0.98115187
H        8.39628827      -5.66681842       2.19019854
H        7.75239091      -5.03044154       0.66336305
H        6.93460871      -6.34413026       1.54016652
H        8.62073413      -1.80024036       4.81383889
H        7.16246571      -1.14499824       5.51427045
H        6.04504743       0.84305799       4.52705738
H        6.32734108       2.88281971       3.17622501
H        9.85188373       1.19834823       1.35438970
H        9.57822829      -0.84341302       2.70276216
C        8.27301708       3.36658844       1.39472863
C        8.41039121       4.36674260       0.73498929
Br       8.63251356       5.98390730      -0.33175342
