138
Properties=species:S:1:pos:R:3 pbc="F F F"
C        1.79201719       1.79201719      -1.79201719
C        2.87067439       2.47368659      -1.22707895
C        3.69265699       3.28274789      -2.02824923
C        4.86984962       4.02130782      -1.42651563
N        5.85754311       3.13159396      -0.79430055
C        6.51237804       2.20853300      -1.74900927
C        7.50992185       2.89221558      -2.69685457
O        8.51548713       3.60501953      -1.96728209
C        7.92625137       4.56938076      -1.08793533
C        6.92038566       3.91523748      -0.12198184
C        3.40581075       3.39753805      -3.39652131
C        2.32385519       2.70911299      -3.94746791
C        1.51217522       1.90447360      -3.15182110
H        3.08996917       2.37229472      -0.16619095
H        4.45564338       4.69943456      -0.66859557
H        5.32841239       4.66430767      -2.18611967
H        5.77610150       1.63703339      -2.32401856
H        7.06004394       1.46574814      -1.15304751
H        8.01907410       2.13431968      -3.30208983
H        7.00878541       3.57952308      -3.38856789
H        8.73763251       5.02958060      -0.51577041
H        7.45923498       5.36049299      -1.68486725
H        7.46977186       3.22560096       0.53248260
H        6.48220703       4.67432837       0.53722782
H        4.03078408       4.02018589      -4.03327814
H        0.67247557       1.36988223      -3.58652492
C        2.04747364       2.83123309      -5.35540964
C        1.81600410       2.93350868      -6.53456084
Br       1.44173742       3.09887966      -8.44114861
C       -1.79201719      -1.79201719      -1.79201719
C       -1.80897546      -1.58981154      -3.17265292
C       -2.61080864      -2.39786593      -3.99497953
C       -2.63127532      -2.19133119      -5.49506657
N       -1.31024392      -2.34789882      -6.12529489
C       -0.75699992      -3.71535129      -5.99756910
C       -1.46604313      -4.76176368      -6.87118519
O       -1.45808746      -4.37846364      -8.25123765
C       -2.06059461      -3.09195437      -8.43101848
C       -1.37107496      -2.01792031      -7.56860970
C       -3.39468914      -3.40032104      -3.40485993
C       -3.36678227      -3.59114878      -2.02250505
C       -2.56814998      -2.79104419      -1.20927575
H       -1.19157396      -0.81478330      -3.62209757
H       -2.99338656      -1.16817996      -5.66210700
H       -3.37919795      -2.85207457      -5.94756720
H       -0.73870032      -4.04506163      -4.95339151
H        0.29555372      -3.66610928      -6.30828402
H       -0.94131918      -5.72022581      -6.79393863
H       -2.50017886      -4.92894670      -6.54775083
H       -1.96381474      -2.83006536      -9.48910342
H       -3.13122065      -3.16354619      -8.20982837
H       -0.33737824      -1.90432086      -7.92119113
H       -1.85242548      -1.04455079      -7.72233131
H       -4.02288137      -4.03597812      -4.02538861
H       -2.54936683      -2.94527944      -0.13423644
C       -4.17133836      -4.62978496      -1.43299306
C       -4.84515409      -5.49964276      -0.93927677
Br      -5.93465714      -6.90612925      -0.14097930
C       -1.79201719       1.79201719       1.79201719
C       -3.17967324       1.73623789       1.65552879
C       -4.00167100       2.53743314       2.46454996
C       -5.50888238       2.47949442       2.32929627
N       -6.06738648       1.14007407       2.57597707
C       -5.85104813       0.65928991       3.95958227
C       -6.70890287       1.37695979       5.01312934
O       -8.10305215       1.28768425       4.69705235
C       -8.36999321       1.81911967       3.39445458
C       -7.52551620       1.11909759       2.31299118
C       -3.40458057       3.39449426       3.40079528
C       -2.01520476       3.43888310       3.52634823
C       -1.20207463       2.64084674       2.72554855
H       -3.63397866       1.06259328       0.93188289
H       -5.73958802       2.78424061       1.29984488
H       -5.96600940       3.23673269       2.97609764
H       -4.79322896       0.70447101       4.23945349
H       -6.11297734      -0.40750009       3.97336233
H       -6.56296836       0.90276296       5.98975230
H       -6.42801685       2.43159507       5.11726446
H       -9.43308785       1.66172063       3.18817503
H       -8.19723715       2.90092484       3.40643321
H       -7.83306036       0.06613318       2.26369669
H       -7.74636395       1.54581161       1.32713202
H       -4.02478525       4.02339346       4.03606940
H       -0.12144872       2.67855958       2.82887441
C       -1.41805804       4.31827771       4.49778064
C       -0.91794766       5.05477069       5.31135528
Br      -0.10931147       6.24561755       6.62683666
C        1.79201719      -1.79201719       1.79201719
C        1.22325862      -2.49005773       2.85812357
C        2.02213693      -3.30894074       3.67257644
C        1.41372267      -4.07612909       4.82782131
N        0.35537839      -5.01249332       4.41556591
C        0.84175839      -6.09634673       3.53181519
C        1.70369979      -7.14815059       4.24714162
O        1.00599949      -7.72437372       5.35741554
C        0.58742818      -6.71418836       6.28195093
C       -0.28121216      -5.64303208       5.59578505
C        3.39478628      -3.40497314       3.40011070
C        3.94927982      -2.70134847       2.32980780
C        3.15457062      -1.89269115       1.52120815
H        0.15613345      -2.41539381       3.05692758
H        0.98904097      -3.32623997       5.50839258
H        2.20577881      -4.58006297       5.39299794
H        1.37663225      -5.69683823       2.66368298
H       -0.04510570      -6.60015648       3.12378880
H        1.94246537      -7.96067574       3.55234251
H        2.65406047      -6.72708467       4.59573124
H        0.00721457      -7.20887898       7.06688997
H        1.47136079      -6.27542548       6.75780893
H       -1.20796895      -6.12024145       5.25061773
H       -0.58549671      -4.88117354       6.32363075
H        4.03010071      -4.03380204       4.02034536
H        3.59146750      -1.34870194       0.68871328
C        5.35877103      -2.81682867       2.05851669
C        6.53921991      -2.91354334       1.83131038
Br       8.44790592      -3.06992277       1.46393700
C       -0.00445707       0.01189536      -1.78238275
H       -0.66409135       0.67374010      -2.43557963
H        0.65740317      -0.63156657      -2.45157240
C       -0.90989263      -0.90692880      -0.91072765
C        0.90977584       0.90977584      -0.90977584
C       -0.00465871       1.77757030       0.00794375
H       -0.66225468       2.44313916      -0.64384735
H        0.64322798       2.43503045       0.67728295
C       -1.78241447       0.00034974      -0.00472694
H       -2.45427497      -0.65498947       0.64260836
H       -2.43311707       0.67328779      -0.65473579
C       -0.91132561       0.90220522       0.91563759
C       -0.01476271      -0.02253852       1.78660255
H       -0.67934791      -0.69751639       2.42135241
H        0.63392994       0.61504881       2.47327442
C        0.01484550      -1.77751727      -0.01636693
H        0.67870853      -2.42144646      -0.68295456
H       -0.62264859      -2.45592969       0.64226336
C        1.78714474       0.01002794       0.00389507
H        2.44202412       0.67113390       0.66197326
H        2.45385902      -0.65136977      -0.64189061
C        0.91606151      -0.90478549       0.90901405
