141
Properties=species:S:1:pos:R:3 pbc="F F F"
C        0.00000000       0.00000000       0.00000000
C        3.19358024       4.66588562      -3.27582965
O        3.33710891       3.24980256      -3.29372915
C        2.51264143       2.50996730      -2.48491609
C        1.66290796       3.07414065      -1.52357397
C        0.85150410       2.26276185      -0.72470786
C        0.88129820       0.88129820      -0.88129820
C        1.71273198       0.30113664      -1.83300735
C        2.53902461       1.10730110      -2.63592824
C        3.38894922       0.39230184      -3.64407824
O        3.05032889      -0.72969365      -4.00385014
N        4.54527663       1.04120051      -4.02715515
C        5.39317063       0.68509972      -5.05756628
O        5.25660608      -0.29352571      -5.78310502
C        6.54001316       1.61618748      -5.31910847
C        7.09697193       1.56572618      -6.60997866
C        8.16933734       2.38558662      -6.94554296
Br       8.88923119       2.32942978      -8.69147842
C        8.71407291       3.24895072      -6.00185173
C        8.17049470       3.30810456      -4.71543460
C        7.07150405       2.51087449      -4.36495839
O        6.49082167       2.53614489      -3.12236541
C        6.83493163       3.61072190      -2.25315709
H        3.85742291       5.07609256      -4.04304907
H        3.50924818       5.07514838      -2.31087286
H        2.17064617       4.96796465      -3.52297393
H        1.60451836       4.14675210      -1.36611816
H        0.19919119       2.72041383       0.01558223
H        1.72772227      -0.78108585      -1.95567326
H        4.73871676       1.92626911      -3.57389251
H        6.68196822       0.88438488      -7.35158116
H        9.56426024       3.87840860      -6.25472351
H        8.64020078       3.98265195      -4.00591584
H        7.87049104       3.52419302      -1.90960721
H        6.18517956       3.54735633      -1.37493479
H        6.65205806       4.57885026      -2.73130771
C       -2.98355828      -4.61134658      -3.54039064
O       -3.34258313      -3.25891892      -3.27913858
C       -2.50802380      -2.51427930      -2.48522172
C       -1.42204684      -3.05519527      -1.78338047
C       -0.61291204      -2.24190029      -0.98416147
C       -0.88129820      -0.88129820      -0.88129820
C       -1.95019348      -0.32300405      -1.57367844
C       -2.77532428      -1.13331297      -2.37361670
C       -3.89301500      -0.43875446      -3.09355984
O       -3.80068289       0.76760549      -3.29140798
N       -4.98668704      -1.22025308      -3.40669217
C       -6.05160967      -0.87059228      -4.21363467
O       -6.19997733       0.21573563      -4.76194369
C       -7.07092326      -1.94308328      -4.46130256
C       -7.85372766      -1.79781482      -5.62113428
C       -8.83109924      -2.73743913      -5.93192856
Br      -9.85555999      -2.54665216      -7.50792725
C       -9.05732774      -3.81911503      -5.08843258
C       -8.28700171      -3.97457358      -3.93245857
C       -7.27760327      -3.05438593      -3.61534773
O       -6.48435205      -3.16350534      -2.50147458
C       -6.49690887      -4.40262333      -1.79927842
H       -3.70489091      -5.01299086      -4.25868277
H       -3.05277008      -5.21358944      -2.62890990
H       -1.98843963      -4.68161428      -3.99153084
H       -1.17290861      -4.11069840      -1.83378160
H        0.22492541      -2.68134953      -0.44759866
H       -2.15233112       0.74438869      -1.49436725
H       -4.95722611      -2.18440481      -3.09724746
H       -7.68908838      -0.94736510      -6.28148078
H       -9.83295326      -4.54612090      -5.31831820
H       -8.51163810      -4.82343814      -3.29369233
H       -7.45388528      -4.55877797      -1.29162802
H       -5.71615314      -4.35744542      -1.03387212
H       -6.25802346      -5.23694983      -2.46724273
C       -4.66635395       3.26642079       3.20252077
O       -3.24952725       3.29428867       3.33682471
C       -2.50978916       2.48493431       2.51280135
C       -3.07318686       1.51456436       1.67287136
C       -2.26188866       0.71569757       0.86138756
C       -0.88129820       0.88129820       0.88129820
C       -0.30196791       1.84202006       1.70288800
C       -1.10798293       2.64507049       2.52920053
C       -0.39406524       3.66321115       3.36805291
O        0.72340787       4.02795878       3.01993448
N       -1.03801325       4.04956141       4.52605762
C       -0.68313538       5.08765649       5.36504476
O        0.28991270       5.81853913       5.21755896
C       -1.60854011       5.35061334       6.51615566
C       -1.56282232       6.64533374       7.06452070
C       -2.37795599       6.98254138       8.13996955
Br      -2.32842779       8.73339232       8.84831928
C       -3.23173739       6.03687580       8.69626216
C       -3.28609051       4.74663877       8.16130458
C       -2.49366050       4.39420409       7.05947234
O       -2.51465037       3.14776730       6.48691430
C       -3.58139653       2.27394241       6.84347169
H       -5.07723595       4.03525626       3.86407233
H       -5.06737930       2.30091869       3.52697144
H       -4.97654433       3.50504836       2.17999206
H       -4.14511492       1.34988748       1.62238621
H       -2.71892942      -0.03167966       0.21677302
H        0.77951723       1.97169084       1.71013607
H       -1.91889558       3.59190702       4.72807578
H       -0.88892818       7.38859018       6.64041590
H       -3.85736400       6.29118220       9.54884616
H       -3.95304785       4.03585987       8.63986086
H       -3.48604697       1.93761737       7.88062693
H       -3.51653797       1.39198349       6.19894923
H       -4.55372757       2.74471296       6.66377550
C        4.62168701      -3.00484732       3.50876118
O        3.24379039      -3.31143628       3.32541395
C        2.50386443      -2.48658151       2.51707887
C        2.98285650      -1.27311459       2.00465149
C        2.17428788      -0.47371049       1.19097543
C        0.88129820      -0.88129820       0.88129820
C        0.38816285      -2.08434349       1.37436963
C        1.18994321      -2.89191556       2.20039517
C        0.57700293      -4.17764323       2.67068314
O       -0.35506793      -4.65002199       2.02953133
N        1.07411067      -4.68580664       3.85371497
C        0.81015950      -5.92718967       4.39848745
O        0.06066322      -6.76903181       3.91649036
C        1.55192269      -6.26559540       5.65779101
C        1.69186401      -7.63559438       5.94521836
C        2.35726030      -8.04838082       7.09482580
Br       2.56418275      -9.89165227       7.45430437
C        2.87332952      -7.11012900       7.98141683
C        2.74027844      -5.74581462       7.70794080
C        2.09804329      -5.30866935       6.54062428
O        1.94911769      -3.98415080       6.21606349
C        2.72056319      -3.03385584       6.94439159
H        5.06586452      -3.81374806       4.09695197
H        4.73982305      -2.07737207       4.07807430
H        5.15217188      -2.95723135       2.55218151
H        3.98513548      -0.91439760       2.21785553
H        2.56498880       0.46449080       0.80352478
H       -0.62323431      -2.40176575       1.12377824
H        1.78474803      -4.13440616       4.31972418
H        1.28119124      -8.37637510       5.26036793
H        3.37824710      -7.42851550       8.89062975
H        3.14170214      -5.04925240       8.43781404
H        2.37254766      -2.95283841       7.97890521
H        2.58102108      -2.05882153       6.46762808
H        3.78793735      -3.27477276       6.89950592
