170
Properties=species:S:1:pos:R:3 pbc="F F F"
C        4.10348427       5.57578964      -4.18573367
O        4.24701294       4.15970659      -4.20363317
C        3.42254545       3.41987133      -3.39482011
C        2.57281199       3.98404467      -2.43347800
C        1.76140812       3.17266587      -1.63461188
C        1.79120223       1.79120223      -1.79120223
C        2.62263600       1.21104066      -2.74291138
C        3.44892864       2.01720512      -3.54583226
C        4.29885324       1.30220587      -4.55398227
O        3.96023291       0.18021038      -4.91375417
N        5.45518065       1.95110453      -4.93705918
C        6.30307465       1.59500374      -5.96747030
O        6.16651010       0.61637832      -6.69300904
C        7.44991718       2.52609151      -6.22901249
C        8.00687595       2.47563020      -7.51988268
C        9.07924136       3.29549065      -7.85544699
C        9.62397693       4.15885474      -6.91175575
C        9.08039873       4.21800858      -5.62533863
C        7.98140807       3.42077851      -5.27486241
O        7.40072569       3.44604892      -4.03226943
C        7.74483566       4.52062593      -3.16306112
H        4.76732694       5.98599658      -4.95295309
H        4.41915221       5.98505241      -3.22077688
H        3.08055020       5.87786867      -4.43287795
H        2.51442238       5.05665612      -2.27602218
H        1.10909521       3.63031785      -0.89432179
H        2.63762629       0.12881817      -2.86557729
H        5.64862078       2.83617314      -4.48379653
H        7.59187225       1.79428890      -8.26148519
H       10.47416426       4.78831263      -7.16462754
H        9.55010481       4.89255598      -4.91581987
H        8.78039506       4.43409704      -2.81951124
H        7.09508359       4.45726036      -2.28483881
H        7.56196208       5.48875428      -3.64121174
C        9.62791693       3.25269005      -9.18613223
C       10.08743272       3.21684454     -10.30058113
Br      10.83043089       3.15888540     -12.10255074
C       -4.64202487      -3.78436389      -5.43861882
O       -4.17965871      -4.25383171      -4.17686227
C       -3.39619957      -3.41445547      -3.42658184
C       -2.88831246      -2.19833815      -3.90368405
C       -2.08845023      -1.39087015      -3.08936549
C       -1.79120223      -1.79120223      -1.79120223
C       -2.28948907      -2.99120299      -1.29589599
C       -3.08795342      -3.81486406      -2.10914854
C       -3.59143727      -5.08121344      -1.48239066
O       -3.64899852      -5.14571455      -0.25948439
N       -3.87690395      -6.11333553      -2.35310487
C       -4.51417606      -7.30072139      -2.05065125
O       -4.90594436      -7.63249809      -0.93745501
C       -4.77877998      -8.21978859      -3.20645260
C       -5.81991368      -9.14980728      -3.03266788
C       -6.13509437     -10.04969500      -4.04538963
C       -5.41076640     -10.05182615      -5.23199488
C       -4.37332680      -9.13347977      -5.41693937
C       -4.05778168      -8.19910818      -4.42015913
O       -3.05869824      -7.26834600      -4.55199981
C       -2.51630090      -7.05984412      -5.85237768
H       -5.32122568      -4.54013702      -5.84491392
H       -3.80904278      -3.67548631      -6.14045241
H       -5.20403460      -2.85026288      -5.33699935
H       -3.09436464      -1.84379609      -4.90893995
H       -1.70416660      -0.45082009      -3.47874817
H       -2.05858025      -3.29713544      -0.27630607
H       -3.69286859      -5.94140221      -3.33431966
H       -6.38516406      -9.16083465      -2.10164762
H       -5.64207478     -10.76594321      -6.01908643
H       -3.82263761      -9.18445303      -6.35139002
H       -1.93041397      -7.92474457      -6.17884481
H       -1.84072779      -6.20086602      -5.79558894
H       -3.30338130      -6.81509620      -6.57345060
C       -7.21720412     -10.98281623      -3.86671886
C       -8.12347104     -11.76430526      -3.71708209
Br      -9.58882799     -13.02790694      -3.47513209
C       -4.88651630       3.69436035       5.28413092
O       -4.16904851       4.25255791       4.18874627
C       -3.39854008       3.40988412       3.42881269
C       -3.14469275       2.07460768       3.77103422
C       -2.34356879       1.26929066       2.95582642
C       -1.79120223       1.79120223       1.79120223
C       -2.03497102       3.11168671       1.42993032
C       -2.83233937       3.93275834       2.24686831
C       -3.05114632       5.33695137       1.76694368
O       -2.90367849       5.57677003       0.57374894
N       -3.32756836       6.27219218       2.74358382
C       -3.73968264       7.57606662       2.54979944
O       -3.89981417       8.11542071       1.46066258
C       -4.05663734       8.35838537       3.78999846
C       -4.91936702       9.45737623       3.62564559
C       -5.26559322      10.24861210       4.71597367
C       -4.74627309       9.97264397       5.97567036
C       -3.88733405       8.88412411       6.15228777
C       -3.54801789       8.05693206       5.07209905
O       -2.71981600       6.96966412       5.18956392
C       -2.42535973       6.50117301       6.50198996
H       -5.51172869       4.48582130       5.70872662
H       -4.19891995       3.35897845       6.06708310
H       -5.54778217       2.88462461       4.95889005
H       -3.55494290       1.62306803       4.66908976
H       -2.15875143       0.23563474       3.23934868
H       -1.60479635       3.51370540       0.51352000
H       -3.32758952       5.94030506       3.70069587
H       -5.32209468       9.68583066       2.63972099
H       -4.99999786      10.59981180       6.82729477
H       -3.49089258       8.71813586       7.14945221
H       -1.78606890       7.20863597       7.03929848
H       -1.87354054       5.56149523       6.40214699
H       -3.34331961       6.28852151       7.06008698
C       -6.16717966      11.35783644       4.54172311
C       -6.92225830      12.28681183       4.39578827
Br      -8.14315660      13.78888645       4.15982397
C        4.24588830      -5.57017922       4.04894006
O        4.24212538      -4.15611655       4.21211077
C        3.42483428      -3.41707201       3.39533060
C        2.72946373      -3.95643909       2.30443183
C        1.91690417      -3.14633743       1.50544427
C        1.79120223      -1.79120223       1.79120223
C        2.46770796      -1.23670794       2.87217215
C        3.29410897      -2.04068249       3.67717456
C        3.96997818      -1.35667393       4.82838926
O        3.48702787      -0.31327626       5.25389333
N        5.14604059      -1.93161355       5.26569022
C        5.85440750      -1.60554872       6.40559247
O        5.55241023      -0.72275806       7.20072916
C        7.06105273      -2.44848996       6.69547849
C        7.48832699      -2.47857329       8.03548855
C        8.60303248      -3.22576591       8.40138061
C        9.31773212      -3.93445756       7.44239775
C        8.90418551      -3.91220175       6.10735867
C        7.76679098      -3.18836486       5.72189315
O        7.30899216      -3.14044020       4.42961168
C        7.83961074      -4.08446015       3.50445182
H        4.87433993      -5.99332856       4.83860812
H        4.68939647      -5.84807928       3.08750574
H        3.24061971      -5.98906652       4.16161059
H        2.79545519      -5.00821038       2.04343511
H        1.38580471      -3.58447892       0.66345123
H        2.36096427      -0.17588170       3.09517578
H        5.46968823      -2.74422239       4.75467983
H        6.93934045      -1.91760082       8.79070506
H       10.20061117      -4.50515682       7.72133643
H        9.50369854      -4.46466024       5.39012188
H        8.88825148      -3.86808641       3.27766545
H        7.27070739      -3.99224546       2.57422990
H        7.71293857      -5.10899826       3.86999128
C        9.01920462      -3.26825881       9.77927578
C        9.36774878      -3.30384662      10.93326299
Br       9.93131522      -3.36138910      12.79916270
C       -0.00445707       0.01189536      -1.78238275
H       -0.66409135       0.67374010      -2.43557963
H        0.65740317      -0.63156657      -2.45157240
C       -0.90989263      -0.90692880      -0.91072765
C        0.90977584       0.90977584      -0.90977584
C       -0.00465871       1.77757030       0.00794375
H       -0.66225468       2.44313916      -0.64384735
H        0.64322798       2.43503045       0.67728295
C       -1.78241447       0.00034974      -0.00472694
H       -2.45427497      -0.65498947       0.64260836
H       -2.43311707       0.67328779      -0.65473579
C       -0.91132561       0.90220522       0.91563759
C       -0.01476271      -0.02253852       1.78660255
H       -0.67934791      -0.69751639       2.42135241
H        0.63392994       0.61504881       2.47327442
C        0.01484550      -1.77751727      -0.01636693
H        0.67870853      -2.42144646      -0.68295456
H       -0.62264859      -2.45592969       0.64226336
C        1.78714474       0.01002794       0.00389507
H        2.44202412       0.67113390       0.66197326
H        2.45385902      -0.65136977      -0.64189061
C        0.91606151      -0.90478549       0.90901405
