190
Properties=species:S:1:pos:R:3 pbc="F F F"
C        1.79508383       1.79508383      -1.79508383
C        1.39721594       3.10705306      -2.05106989
C        2.24167084       3.95578119      -2.77514774
C        3.45684587       3.47313403      -3.25717583
O        4.39788734       4.31401573      -3.78002563
C        3.98073899       5.21931315      -4.81051277
C        4.89226176       4.90894710      -5.98789486
O        4.81498825       5.81025376      -7.06184325
C        5.71971378       5.69696004      -8.09247447
C        5.56778101       6.83277579      -8.92713893
C        6.37630389       7.05146159     -10.03800307
Br       6.15430708       8.61293813     -11.07872746
C        7.35930808       6.13473803     -10.36262138
C        7.52588426       5.00564174      -9.55570914
C        6.72081421       4.75370219      -8.41626110
O        7.18345023       3.62349036      -7.77844317
C        6.27332783       2.68797053      -7.22192968
C        6.77683935       1.24767683      -7.18346371
O        5.82520504       0.46723351      -6.43537947
C        6.21540038       0.19806301      -5.07788907
C        5.02686073       0.35513159      -4.11209527
O        5.00331753       1.70975519      -3.62644072
C        3.81771532       2.12279228      -3.06701296
C        2.99303222       1.29415228      -2.29778856
H        0.45742191       3.49390507      -1.66501541
H        1.95611833       4.99096623      -2.92001816
H        4.12159573       6.24605463      -4.46095870
H        2.93201756       5.09877564      -5.11050283
H        4.50908465       3.95497459      -6.34199630
H        5.92306137       4.85587252      -5.62146038
H        4.81109120       7.57297044      -8.67079676
H        8.00703028       6.28687133     -11.22253000
H        8.31473597       4.30026831      -9.81484266
H        5.30896660       2.70598233      -7.74155818
H        6.16497039       2.92519744      -6.16549918
H        7.78780953       1.17542329      -6.76641928
H        6.82000610       0.84555310      -8.19990417
H        7.04555842       0.83755998      -4.75962008
H        6.54506087      -0.84552713      -5.06751170
H        5.17975616      -0.31173250      -3.25501854
H        4.08707363       0.10941398      -4.62071356
H        3.29045688       0.27802270      -2.05715744
C       -1.79508383      -1.79508383      -1.79508383
C       -2.93467244      -1.24201830      -2.37864815
C       -3.69744072      -2.00908188      -3.26607716
C       -3.32715823      -3.32542101      -3.53457650
O       -3.91183742      -4.03579837      -4.54429292
C       -5.34409156      -4.09307943      -4.57339393
C       -5.67082384      -5.57819424      -4.54008565
O       -7.01814902      -5.90247989      -4.76645634
C       -7.36864326      -7.22476276      -4.91574228
C       -8.72103010      -7.26781317      -5.33885247
C       -9.36923537      -8.46304080      -5.63349237
Br     -11.15798019      -8.44565805      -6.24233442
C       -8.69176281      -9.66144732      -5.50345736
C       -7.35820761      -9.64394517      -5.08508235
C       -6.66783144      -8.44414208      -4.77880398
O       -5.35378132      -8.74126490      -4.49033753
C       -4.67550769      -8.06274627      -3.44497409
C       -3.57232588      -8.86976619      -2.76588782
O       -2.87142057      -7.98974151      -1.86665594
C       -1.62036189      -7.49592378      -2.37506678
C       -1.43720333      -6.00107101      -2.05581325
O       -1.95950909      -5.22817583      -3.15182853
C       -2.22178126      -3.90683703      -2.87890226
C       -1.43347708      -3.11846905      -2.03302692
H       -3.22031654      -0.21110482      -2.18492103
H       -4.54715324      -1.55654485      -3.76340464
H       -5.70027141      -3.63021645      -5.49812119
H       -5.82660175      -3.58729359      -3.72740068
H       -5.44423488      -5.84989472      -3.51192594
H       -5.03811886      -6.08714129      -5.27513413
H       -9.25979158      -6.32976916      -5.46529766
H       -9.17545119     -10.60767502      -5.73330541
H       -6.83269781     -10.59473160      -5.00241753
H       -5.37140697      -7.70870036      -2.67639978
H       -4.12066175      -7.24127020      -3.89373506
H       -2.89862504      -9.33924164      -3.49178541
H       -4.01672027      -9.67506971      -2.17367339
H       -1.52515042      -7.66460950      -3.45297856
H       -0.84497474      -8.06705265      -1.85501805
H       -0.36474980      -5.78880636      -1.96948605
H       -1.95077877      -5.74489024      -1.12153216
H       -0.52472030      -3.51256354      -1.58835318
C       -1.79508383       1.79508383       1.79508383
C       -1.44109273       3.13087113       1.98337503
C       -2.29041397       3.97470882       2.70747698
C       -3.46529094       3.46500766       3.25685714
O       -4.41857241       4.28908209       3.78427420
C       -3.99863842       5.25101479       4.76091171
C       -4.85022475       4.95337025       5.98550873
O       -4.76777090       5.89983150       7.01948285
C       -5.62628711       5.79325844       8.08960273
C       -5.48813490       6.96706023       8.87250060
C       -6.26094126       7.19894633      10.00588095
Br      -6.06207158       8.80882589      10.97507520
C       -7.19254152       6.25852166      10.40560431
C       -7.34450462       5.09198370       9.65074682
C       -6.57491088       4.82560227       8.49026435
O       -7.01582731       3.65326859       7.91628786
C       -6.09088888       2.73213482       7.36020434
C       -6.53667000       1.27293250       7.39837740
O       -5.58404535       0.50047596       6.64329671
C       -6.01562498       0.16144678       5.31428069
C       -4.87299246       0.32542047       4.29567466
O       -4.92337686       1.65911311       3.75702347
C       -3.77821929       2.09502147       3.13427981
C       -2.95121356       1.26863768       2.36512182
H       -0.53353254       3.53808663       1.54472322
H       -2.04166317       5.02526378       2.80017577
H       -4.19455426       6.25645705       4.37759775
H       -2.93499283       5.18372382       5.02257938
H       -4.41514733       4.03021318       6.36069502
H       -5.89152387       4.84532723       5.66354318
H       -4.77266699       7.72518258       8.55700884
H       -7.81188557       6.42004839      11.28449765
H       -8.09338735       4.36748680       9.96897278
H       -5.10852804       2.80879552       7.83918356
H       -6.03351294       2.93035117       6.29180290
H       -7.55936608       1.14446072       7.02582530
H       -6.52382774       0.91099966       8.43063597
H       -6.88282009       0.75465437       5.00526402
H       -6.30282960      -0.89376318       5.35797902
H       -5.03200483      -0.38111933       3.47215671
H       -3.90489662       0.13736483       4.77493973
H       -3.21632407       0.23276017       2.17655279
C        1.79508383      -1.79508383       1.79508383
C        2.94627144      -1.24790123       2.36116622
C        3.71028753      -2.01368574       3.24862649
C        3.32932553      -3.32329376       3.53453644
O        3.91712014      -4.02929826       4.54551030
C        5.34893609      -4.10111726       4.56051157
C        5.66005604      -5.58980176       4.53924592
O        7.00625777      -5.92569350       4.75513398
C        7.34469950      -7.24993680       4.91451199
C        8.70088573      -7.30265774       5.32415226
C        9.33981633      -8.50145365       5.62449856
Br      11.13485875      -8.49636485       6.21474908
C        8.64877649      -9.69404584       5.51384516
C        7.31120693      -9.66701703       5.10901117
C        6.63003624      -8.46332851       4.79741276
O        5.31008890      -8.74976092       4.52553393
C        4.62801362      -8.07500745       3.48020697
C        3.50963430      -8.87747448       2.82087111
O        2.80851090      -7.99950302       1.91980410
C        1.56791885      -7.48755839       2.43587522
C        1.39680363      -5.99424094       2.10304302
O        1.93833929      -5.21559906       3.18557509
C        2.21130786      -3.89991799       2.89629471
C        1.42240773      -3.11214051       2.05042482
H        3.24045138      -0.22204448       2.15384653
H        4.56970510      -1.56490146       3.73249617
H        5.71940852      -3.63250991       5.47669063
H        5.82781565      -3.60906258       3.70441780
H        5.42004955      -5.86967077       3.51633522
H        5.02981551      -6.08459878       5.28597999
H        9.25052157      -6.36899974       5.43533710
H        9.12509017     -10.64282795       5.74851350
H        6.77514437     -10.61310438       5.04159818
H        5.31950552      -7.73609387       2.70090772
H        4.08630285      -7.24326600       3.92609816
H        2.83871229      -9.33247310       3.55846670
H        3.93958453      -9.69337186       2.23250699
H        1.48215777      -7.64418364       3.51639707
H        0.78136693      -8.05592518       1.92975334
H        0.32574663      -5.77177042       2.02552516
H        1.90327007      -5.75299228       1.16093882
H        0.50509726      -3.50133653       1.61920324
C       -0.00445707       0.01189536      -1.78238275
H       -0.66409135       0.67374010      -2.43557963
H        0.65740317      -0.63156657      -2.45157240
C       -0.90989263      -0.90692880      -0.91072765
C        0.90977584       0.90977584      -0.90977584
C       -0.00465871       1.77757030       0.00794375
H       -0.66225468       2.44313916      -0.64384735
H        0.64322798       2.43503045       0.67728295
C       -1.78241447       0.00034974      -0.00472694
H       -2.45427497      -0.65498947       0.64260836
H       -2.43311707       0.67328779      -0.65473579
C       -0.91132561       0.90220522       0.91563759
C       -0.01476271      -0.02253852       1.78660255
H       -0.67934791      -0.69751639       2.42135241
H        0.63392994       0.61504881       2.47327442
C        0.01484550      -1.77751727      -0.01636693
H        0.67870853      -2.42144646      -0.68295456
H       -0.62264859      -2.45592969       0.64226336
C        1.78714474       0.01002794       0.00389507
H        2.44202412       0.67113390       0.66197326
H        2.45385902      -0.65136977      -0.64189061
C        0.91606151      -0.90478549       0.90901405
