198
Properties=species:S:1:pos:R:3 pbc="F F F"
C        1.79508383       1.79508383      -1.79508383
C        1.39721594       3.10705306      -2.05106989
C        2.24167084       3.95578119      -2.77514774
C        3.45684587       3.47313403      -3.25717583
O        4.39788734       4.31401573      -3.78002563
C        3.98073899       5.21931315      -4.81051277
C        4.89226176       4.90894710      -5.98789486
O        4.81498825       5.81025376      -7.06184325
C        5.71971378       5.69696004      -8.09247447
C        5.56778101       6.83277579      -8.92713893
C        6.37630389       7.05146159     -10.03800307
C        7.35930808       6.13473803     -10.36262138
C        7.52588426       5.00564174      -9.55570914
C        6.72081421       4.75370219      -8.41626110
O        7.18345023       3.62349036      -7.77844317
C        6.27332783       2.68797053      -7.22192968
C        6.77683935       1.24767683      -7.18346371
O        5.82520504       0.46723351      -6.43537947
C        6.21540038       0.19806301      -5.07788907
C        5.02686073       0.35513159      -4.11209527
O        5.00331753       1.70975519      -3.62644072
C        3.81771532       2.12279228      -3.06701296
C        2.99303222       1.29415228      -2.29778856
H        0.45742191       3.49390507      -1.66501541
H        1.95611833       4.99096623      -2.92001816
H        4.12159573       6.24605463      -4.46095870
H        2.93201756       5.09877564      -5.11050283
H        4.50908465       3.95497459      -6.34199630
H        5.92306137       4.85587252      -5.62146038
H        4.81109120       7.57297044      -8.67079676
H        8.00703028       6.28687133     -11.22253000
H        8.31473597       4.30026831      -9.81484266
H        5.30896660       2.70598233      -7.74155818
H        6.16497039       2.92519744      -6.16549918
H        7.78780953       1.17542329      -6.76641928
H        6.82000610       0.84555310      -8.19990417
H        7.04555842       0.83755998      -4.75962008
H        6.54506087      -0.84552713      -5.06751170
H        5.17975616      -0.31173250      -3.25501854
H        4.08707363       0.10941398      -4.62071356
H        3.29045688       0.27802270      -2.05715744
C        6.20712791       8.24140806     -10.83110260
C        6.06544303       9.23798823     -11.49532347
Br       5.83635056      10.84937408     -12.56931243
C       -1.79508383      -1.79508383      -1.79508383
C       -3.11985649      -1.41932486      -2.01615755
C       -3.91033644      -2.16319697      -2.89906635
C       -3.37490586      -3.28722574      -3.52502413
O       -4.03357836      -3.91362888      -4.54472146
C       -5.39869969      -4.29050317      -4.32136205
C       -5.42936728      -5.79092182      -4.56881463
O       -6.70914830      -6.36719676      -4.61074020
C       -6.83432504      -7.68371239      -4.99111086
C       -8.21582199      -7.95602123      -5.15585252
C       -8.68224874      -9.19234248      -5.59117731
C       -7.78382084     -10.20693955      -5.86590710
C       -6.41669300      -9.96248353      -5.70805860
C       -5.90813976      -8.71429370      -5.26834404
O       -4.53130695      -8.75106531      -5.30301149
C       -3.76914184      -8.14029136      -4.27379484
C       -2.41046894      -8.78474543      -4.01276552
O       -1.69726575      -7.94922120      -3.08133107
C       -0.70879450      -7.09733005      -3.68522791
C       -0.73654552      -5.68548522      -3.07205684
O       -1.62901747      -4.86389987      -3.84659610
C       -2.06111543      -3.71121192      -3.23519321
C       -1.25965913      -2.93346955      -2.39184438
H       -3.53881594      -0.53497387      -1.54255258
H       -4.91976020      -1.83315995      -3.11418258
H       -6.03600671      -3.75888558      -5.03371677
H       -5.75979804      -4.07346914      -3.30802885
H       -4.92755342      -6.18853099      -3.68997113
H       -4.89875222      -5.99710591      -5.50453615
H       -8.93279950      -7.15924013      -4.96281878
H       -8.12412172     -11.17958899      -6.21272091
H       -5.72004165     -10.76639651      -5.94340877
H       -4.32391436      -8.10280700      -3.32978575
H       -3.49297244      -7.14540264      -4.61729193
H       -1.84585828      -8.94551473      -4.93827909
H       -2.55124480      -9.76538964      -3.54882893
H       -0.83312955      -7.03790797      -4.77170097
H        0.25666188      -7.56191169      -3.46179564
H        0.26914438      -5.25329721      -3.13888938
H       -1.06109446      -5.73043277      -2.02567394
H       -0.21662032      -3.18442742      -2.22458928
C      -10.09375603      -9.40575707      -5.78012548
C      -11.27589337      -9.58449179      -5.93836957
Br     -13.18730948      -9.87349072      -6.19423687
C       -1.79508383       1.79508383       1.79508383
C       -1.30694485       3.03159975       2.21679430
C       -2.13891679       3.89126819       2.94241478
C       -3.43530116       3.49119571       3.26065886
O       -4.34346651       4.37114791       3.77731428
C       -3.95112586       5.13217242       4.92726663
C       -5.00080813       4.80885779       5.97943780
O       -4.94992904       5.59610839       7.14104782
C       -5.96015885       5.48074600       8.06824344
C       -5.78988227       6.51466202       9.02315144
C       -6.68257890       6.71122592      10.07196373
C       -7.77271922       5.87212530      10.21182297
C       -7.95967889       4.84380634       9.28374990
C       -7.07056474       4.61725032       8.20296244
O       -7.56793517       3.60214512       7.41530346
C       -6.69565319       2.63460677       6.85296807
C       -7.32201573       1.26172583       6.62423834
O       -6.37521555       0.46113297       5.89146950
C       -6.64997897       0.35747089       4.48390259
C       -5.36108081       0.48177711       3.65122967
O       -5.16540800       1.86580448       3.30830096
C       -3.89689659       2.20694141       2.90368256
C       -3.07814583       1.37327950       2.13354773
H       -0.30177381       3.35567414       1.95889444
H       -1.77613771       4.87497824       3.21598678
H       -3.96191207       6.19545195       4.67124504
H       -2.95323557       4.88003153       5.30802892
H       -4.74376213       3.79291571       6.26937770
H       -5.99010281       4.89325239       5.51703908
H       -4.94692385       7.19537454       8.91256001
H       -8.48696156       6.00948823      11.01998182
H       -8.83160605       4.20056939       9.39767149
H       -5.79077059       2.50817499       7.45756154
H       -6.46053002       2.95511318       5.84002381
H       -8.28832940       1.32974301       6.11157968
H       -7.50357431       0.77494616       7.58694291
H       -7.38215561       1.10348169       4.15710119
H       -7.07073603      -0.64240277       4.33871218
H       -5.48728553      -0.08538351       2.72114019
H       -4.50349427       0.09752810       4.21617880
H       -3.44132897       0.41837590       1.76593214
C       -6.48610556       7.80083098      10.99270203
C       -6.32155914       8.71337522      11.76382037
Br      -6.05550150      10.18888208      13.01065349
C        1.79508383      -1.79508383       1.79508383
C        3.07188195      -1.34854661       2.13491034
C        3.85286178      -2.09925228       3.02048570
C        3.35861935      -3.29838191       3.53015448
O        3.99089618      -3.95075864       4.55027389
C        5.39132744      -4.21877017       4.40046731
C        5.51264089      -5.72764548       4.54881735
O        6.82470118      -6.21876760       4.64361647
C        7.01805033      -7.54782159       4.94327637
C        8.40140618      -7.73843166       5.18785789
C        8.92496747      -8.96883733       5.57196374
C        8.08507632     -10.05816121       5.71342996
C        6.71755267      -9.89480467       5.47487779
C        6.15151098      -8.65508411       5.08418241
O        4.78159618      -8.78602222       5.01776535
C        4.04807581      -8.15542409       3.97972813
C        2.75942172      -8.86877256       3.57978562
O        2.05203127      -8.01822788       2.65755887
C        0.96708334      -7.27956087       3.24470824
C        0.93464389      -5.82878242       2.73066128
O        1.71240278      -5.00698122       3.62012945
C        2.10078734      -3.78726516       3.11946806
C        1.30382205      -3.00641313       2.27473788
H        3.45718725      -0.40661225       1.75254290
H        4.81949028      -1.71883210       3.32878035
H        5.94003099      -3.69812414       5.19045393
H        5.80278370      -3.90621490       3.43229743
H        5.10030547      -6.09397885       3.61177122
H        4.93688306      -6.03516271       5.42834851
H        9.07084330      -6.88382848       5.10018662
H        8.47016536     -11.02824459       6.01802166
H        6.06603091     -10.75817563       5.60564039
H        4.66049288      -8.01359326       3.08242098
H        3.67916213      -7.20829707       4.36820781
H        2.14726450      -9.13263093       4.44975667
H        3.00060814      -9.80214365       3.06271158
H        1.01408218      -7.28982759       4.33882871
H        0.05438830      -7.79035231       2.92230483
H       -0.10159143      -5.47054668       2.75408696
H        1.33066683      -5.77702768       1.70950665
H        0.29489095      -3.31379895       2.01694712
C       10.33236284      -9.10056435       5.84671139
C       11.51105646      -9.21088572       6.07681255
Br      13.41690435      -9.38926606       6.44886666
C       -0.00445707       0.01189536      -1.78238275
H       -0.66409135       0.67374010      -2.43557963
H        0.65740317      -0.63156657      -2.45157240
C       -0.90989263      -0.90692880      -0.91072765
C        0.90977584       0.90977584      -0.90977584
C       -0.00465871       1.77757030       0.00794375
H       -0.66225468       2.44313916      -0.64384735
H        0.64322798       2.43503045       0.67728295
C       -1.78241447       0.00034974      -0.00472694
H       -2.45427497      -0.65498947       0.64260836
H       -2.43311707       0.67328779      -0.65473579
C       -0.91132561       0.90220522       0.91563759
C       -0.01476271      -0.02253852       1.78660255
H       -0.67934791      -0.69751639       2.42135241
H        0.63392994       0.61504881       2.47327442
C        0.01484550      -1.77751727      -0.01636693
H        0.67870853      -2.42144646      -0.68295456
H       -0.62264859      -2.45592969       0.64226336
C        1.78714474       0.01002794       0.00389507
H        2.44202412       0.67113390       0.66197326
H        2.45385902      -0.65136977      -0.64189061
C        0.91606151      -0.90478549       0.90901405
