137
Properties=species:S:1:pos:R:3 pbc="F F F"
C        0.00000000       0.00000000       0.00000000
C        0.88188769       0.88188769      -0.88188769
C        1.05098080       2.22497629      -0.56423392
C        1.86699173       3.02684803      -1.36589222
C        2.51963670       2.49052622      -2.48544351
C        2.34439257       1.13852808      -2.79666911
C        1.51932623       0.33258932      -1.99246258
S        3.18012013       0.35262113      -4.14494021
O        4.59568194       0.59390601      -3.98828167
O        2.66587147      -0.99161976      -4.29224760
N        2.68598271       1.21716782      -5.49946060
C        1.44135023       0.82639454      -6.16616737
C        1.13557474       1.84470033      -7.26466508
C       -0.10743594       1.48425285      -8.07711540
N       -1.32901699       1.48157695      -7.30110732
C       -1.91592718       2.57376811      -6.72954793
N       -3.00704910       2.24173020      -6.07700644
C       -3.13848848       0.88912365      -6.25576824
C       -2.10608900       0.39512592      -7.01898611
H        0.55917592       2.65784221       0.30432911
H        1.99062049       4.07554171      -1.10191105
H        1.38757419      -0.72381774      -2.21800027
H        3.48432411       1.49764108      -6.06842301
H        0.62767433       0.79209299      -5.43536681
H        1.56368615      -0.16538363      -6.61472639
H        1.99033656       1.90516956      -7.95111137
H        1.02620679       2.84287083      -6.82176082
H        0.00704121       0.49559585      -8.53659621
H       -0.25001076       2.20801709      -8.88787443
H       -1.51147719       3.57418072      -6.80940745
H       -3.97046959       0.34381188      -5.82823670
H       -1.87918880      -0.60282026      -7.36776656
C        3.33792757       3.40654837      -3.23704412
C        4.02324617       4.17371692      -3.86650963
Br       5.13134839       5.41416358      -4.88430211
C       -0.88188769      -0.88188769      -0.88188769
C       -2.25763959      -0.68111888      -0.90143254
C       -3.06088801      -1.48154092      -1.71730305
C       -2.49376719      -2.48293762      -2.51890162
C       -1.10915343      -2.67701567      -2.49342067
C       -0.30122588      -1.87446931      -1.66868294
S       -0.29212120      -3.86518950      -3.52037077
O       -0.68103466      -3.60908301      -4.88775196
O        1.10300763      -3.92716901      -3.14233793
N       -0.98326947      -5.33452452      -3.08481715
C       -0.41789107      -6.06702834      -1.94899273
C       -1.30200362      -7.28078648      -1.66215005
C       -0.75408782      -8.16056830      -0.53927619
N       -0.70205750      -7.49785065       0.74624087
C       -1.77866246      -7.08743036       1.47870396
N       -1.40178260      -6.50407508       2.59417014
C       -0.03237175      -6.56291876       2.58888711
C        0.42510881      -7.18181698       1.44868515
H       -2.71565260       0.09543850      -0.29247491
H       -4.13567566      -1.30969530      -1.72270229
H        0.77862369      -2.00816800      -1.65221242
H       -1.28822038      -5.85569385      -3.90647397
H       -0.36972210      -5.41037985      -1.07503218
H        0.59300235      -6.40581526      -2.20021600
H       -1.38394821      -7.89237258      -2.57029671
H       -2.31998551      -6.94708479      -1.42376814
H        0.25542205      -8.51117228      -0.78348303
H       -1.38702698      -9.04644875      -0.41240503
H       -2.80244229      -7.22728227       1.15761358
H        0.55078638      -6.15948987       3.40712450
H        1.42333812      -7.41192328       1.10282766
C       -3.41480000      -3.24449049      -3.32222957
C       -4.18616497      -3.88229102      -3.99501673
Br      -5.43339689      -4.91356053      -5.08285667
C       -0.88188769       0.88188769       0.88188769
C       -0.67831687       0.90469664       2.25717750
C       -1.47876506       1.72057293       3.06039399
C       -2.48298972       2.51892389       2.49369282
C       -2.67987583       2.49017435       1.10953958
C       -1.87729463       1.66542557       0.30165793
S       -3.87186004       3.51297228       0.29284915
O       -3.61778275       4.88168239       0.67840450
O       -3.93593975       3.13192360      -1.10136404
N       -5.33885828       3.07581517       0.98793769
C       -6.07017513       1.93731078       0.42642623
C       -7.28150677       1.64979181       1.31364157
C       -8.16009172       0.52396971       0.76987089
N       -7.49482208      -0.76027993       0.71912514
C       -7.08066150      -1.48966195       1.79638932
N       -6.49577747      -2.60469824       1.42060831
C       -6.55746208      -2.60237295       0.05131427
C       -7.17966456      -1.46440244      -0.40723909
H        0.10044496       0.29829513       2.71483884
H       -1.30471004       1.72855324       4.13480997
H       -2.01319042       1.64644239      -0.77787609
H       -5.86109681       3.89702290       1.29226849
H       -5.41181900       1.06461134       0.37870379
H       -6.41157016       2.18573918      -0.58428043
H       -7.89480169       2.55684029       1.39497551
H       -6.94520889       1.41420888       2.33142067
H       -8.51328637       0.76536016      -0.23941326
H       -9.04439748       0.39657903       1.40490425
H       -7.21906190      -1.16674170       2.81979079
H       -6.15354556      -3.42098079      -0.53098577
H       -7.41254925      -1.12108938      -1.40570238
C       -3.24429950       3.32258196       3.41463860
C       -3.88189645       3.99564558       4.18593069
Br      -4.91283678       5.08393254       5.43304477
C        0.88188769      -0.88188769       0.88188769
C        0.96482112      -2.24659911       0.62877078
C        1.78078158      -3.04924285       1.42970755
C        2.51928285      -2.49235279       2.48397079
C        2.43032437      -1.11875359       2.73051180
C        1.60540400      -0.31169675       1.92727738
S        3.37646215      -0.31114036       3.99007896
O        4.76736585      -0.63595927       3.77454450
O        2.94021396       1.06459958       4.09088493
N        2.91244511      -1.07752639       5.41263965
C        1.72708962      -0.58678283       6.12003969
C        1.42928096      -1.52971906       7.28594013
C        0.25183923      -1.06186156       8.14023153
N       -1.00800928      -1.03306901       7.42860756
C       -1.67984862      -2.11984727       6.94739021
N       -2.78613031      -1.76331746       6.33450039
C       -2.83850413      -0.39823471       6.44667282
C       -1.74263790       0.07780739       7.12846831
H        0.40551070      -2.69615781      -0.18897950
H        1.83630054      -4.11518244       1.21659026
H        1.54010872       0.76040884       2.10205685
H        3.72488795      -1.37114218       5.95435807
H        0.87807042      -0.54610010       5.43096361
H        1.92388611       0.41858493       6.50772773
H        2.31554884      -1.60097422       7.93009444
H        1.24539461      -2.54187078       6.90357304
H        0.44122712      -0.05862553       8.53938062
H        0.11633555      -1.73454860       8.99499660
H       -1.32330816      -3.13519452       7.06022463
H       -3.66335496       0.16852348       6.03345744
H       -1.44662136       1.07860165       7.41098051
C        3.32899250      -3.41151154       3.24101602
C        4.00712432      -4.18130699       3.87504140
Br       5.10360613      -5.42600114       4.90020682
