182
Properties=species:S:1:pos:R:3 pbc="F F F"
C        1.79158054       1.79158054      -1.79158054
C        1.20500618       2.65029040      -2.71806982
C        2.01124184       3.45788763      -3.52522014
C        3.41043918       3.41429573      -3.41256592
C        3.98144316       2.53173728      -2.47891981
C        3.17661375       1.72758408      -1.66850396
C        4.27309212       4.29005902      -4.30266484
H        3.62005643       4.87034343      -4.96941086
N        5.13332358       3.44161476      -5.12033457
C        6.06957302       4.05183877      -5.87644180
N        6.63830903       3.65427584      -6.98395152
C        7.40636879       4.72461117      -7.33470580
N        8.12808707       4.65333702      -8.44916679
N        7.36495075       5.76519748      -6.50632027
N        6.54596164       5.29328986      -5.54944069
C        6.04619816       6.09788099      -4.43955446
H        5.42002995       6.86344797      -4.91883108
C        5.14740112       5.26684481      -3.49634578
C        7.18087946       6.76863144      -3.67752047
C        7.26536354       8.16968532      -3.63038843
C        8.30174363       8.79880780      -2.93593329
C        9.26658835       8.03862862      -2.27676186
C        9.19545862       6.64919786      -2.32114687
C        8.16665841       6.01317641      -3.01653474
H        0.12397654       2.69563804      -2.82286903
H        1.53336980       4.11639058      -4.24807484
H        5.06364996       2.45492614      -2.38648469
H        3.64038600       1.05317968      -0.95331381
H        4.66771870       2.64930719      -5.55840773
H        8.90413051       5.29644298      -8.52565638
H        8.30902067       3.72599223      -8.80850362
H        5.76369093       4.70394330      -2.78345209
H        4.52317566       5.93676811      -2.89064608
H        6.53319239       8.78662667      -4.14821159
H        8.36127501       9.88439955      -2.91571641
H       10.07058412       8.53662541      -1.74158584
H        8.14046824       4.92580441      -3.05402848
C       10.19151383       5.86033361      -1.64352808
C       11.02571007       5.19965981      -1.07602234
Br      12.37453483       4.13140615      -0.15841356
C       -1.79158054      -1.79158054      -1.79158054
C       -3.13669054      -1.47360888      -1.96306699
C       -3.94431910      -2.27986184      -2.77016867
C       -3.41399669      -3.41027405      -3.41303010
C       -2.05652754      -3.71902008      -3.21655262
C       -1.24734110      -2.91141120      -2.41394949
C       -4.30563998      -4.28169633      -4.27847967
H       -5.32491226      -3.87108106      -4.26381739
N       -4.34166094      -5.63035228      -3.72325969
C       -4.97687125      -6.58039981      -4.44058253
N       -5.54991875      -7.68513191      -4.04148573
C       -6.10871058      -8.17070417      -5.18627102
N       -6.79267742      -9.30948600      -5.12842746
N       -5.90894501      -7.44433184      -6.28319165
N       -5.13490248      -6.45849604      -5.79529366
C       -4.72722341      -5.28928571      -6.56712449
H       -5.66733725      -4.75950677      -6.77546498
C       -3.82258218      -4.34984206      -5.73816746
C       -4.06250786      -5.68648826      -7.87803524
C       -4.64464895      -5.31874758      -9.10204077
C       -4.04643182      -5.67735910     -10.31269380
C       -2.85774478      -6.40557073     -10.31866332
C       -2.27470151      -6.77974896      -9.11135288
C       -2.86826015      -6.42995457      -7.89815484
H       -3.56665205      -0.60497293      -1.47085863
H       -4.99450426      -2.01828681      -2.88504415
H       -1.62202793      -4.60370210      -3.67933076
H       -0.20041517      -3.16946746      -2.27699686
H       -4.48055869      -5.67898298      -2.71589195
H       -6.92267830      -9.80217958      -6.00137200
H       -6.61119527      -9.90230417      -4.33001709
H       -2.78368911      -4.70327706      -5.76412014
H       -3.81115354      -3.34935649      -6.19007982
H       -5.57990149      -4.76235607      -9.12577309
H       -4.51288690      -5.39498725     -11.25351682
H       -2.40123051      -6.68246088     -11.26510398
H       -2.40550946      -6.74869639      -6.96609528
C       -1.04807632      -7.53406129      -9.11323791
C       -0.02077772      -8.16579787      -9.11481663
Br       1.64027722      -9.18726248      -9.11736929
C       -1.79158054       1.79158054       1.79158054
C       -1.54598250       1.86692063       3.16046328
C       -2.35227010       2.67394126       3.96813824
C       -3.41034173       3.41280918       3.41414992
C       -3.64742091       3.31271019       2.03196916
C       -2.83943266       2.51017948       1.22308965
C       -4.28332129       4.27713067       4.30536402
H       -3.93634444       4.17988889       5.34357738
N       -5.66105416       3.80300711       4.23121164
C       -6.60535664       4.53901225       4.85348470
N       -7.76348284       4.17527906       5.33777449
C       -8.21602102       5.31364212       5.93602262
N       -9.39537749       5.28574114       6.54947225
N       -7.41780263       6.37439077       5.84427511
N       -6.41644046       5.87275302       5.09949871
C       -5.18284643       6.59466348       4.80612370
H       -4.69967999       6.71697736       5.78565165
C       -4.23922327       5.76335029       3.90801814
C       -5.46418415       7.96275605       4.20009116
C       -5.06324562       9.12734180       4.87484988
C       -5.31582515      10.38941910       4.33124048
C       -5.96959703      10.50675143       3.10563037
C       -6.37594835       9.35924246       2.43061253
C       -6.13201965       8.09542460       2.96892531
H       -0.73418580       1.29965731       3.60864051
H       -2.14832589       2.71301403       5.03649531
H       -4.47660692       3.85186863       1.57658524
H       -3.04132054       2.44870827       0.15685069
H       -5.77510465       2.79413754       4.30619143
H       -9.84462537       6.17798177       6.70362275
H      -10.02057990       4.53608880       6.28684783
H       -4.52739298       5.86951395       2.85417938
H       -3.21581479       6.15409607       3.98067899
H       -4.56375122       9.06435443       5.83992500
H       -5.00907927      11.28350792       4.86880378
H       -6.16427895      11.49255201       2.69196441
H       -6.47473598       7.21204948       2.43351567
C       -7.05367813       9.47623146       1.16546593
C       -7.62127682       9.57420975       0.10590565
Br      -8.53903590       9.73263235      -1.60731371
C        1.79158054      -1.79158054       1.79158054
C        3.16195421      -1.85926660       1.55214560
C        3.96973608      -2.66573836       2.35887516
C        3.41454859      -3.41076252       3.41198973
C        2.02734010      -3.33647452       3.62828563
C        1.21976154      -2.52726513       2.82567512
C        4.30294188      -4.28956532       4.27330878
H        5.33651484      -4.21614609       3.90714978
N        3.86630026      -5.67636553       4.15260711
C        4.45494310      -6.58501931       4.95789117
N        4.61796810      -7.87057461       4.78799369
C        5.36810215      -8.22919555       5.86838807
N        5.72811107      -9.50239206       6.00008774
N        5.67403132      -7.24837730       6.71405987
N        5.03315731      -6.21333222       6.14220266
C        5.14924260      -4.83318184       6.60120917
H        6.20282861      -4.57530126       6.42417913
C        4.27503516      -3.87918205       5.75637450
C        4.83421117      -4.70735174       8.08546845
C        5.82223807      -4.26370152       8.97949770
C        5.54767813      -4.14455012      10.34425647
C        4.28271170      -4.46392741      10.83533972
C        3.29737559      -4.90951029       9.95891747
C        3.56486590      -5.03602334       8.59548032
H        3.60992423      -1.29306698       0.73949239
H        5.03698088      -2.71052125       2.15033310
H        1.56275992      -3.92284416       4.41945671
H        0.14974745      -2.48517443       3.01195761
H        3.68361506      -5.99027990       3.20153867
H        5.99788403      -9.80105757       6.92728828
H        5.18781356     -10.17823991       5.47746307
H        3.23954068      -3.89117101       6.12037463
H        4.62507708      -2.84592682       5.87958595
H        6.82224972      -4.02135929       8.62442165
H        6.32466980      -3.80947705      11.02724412
H        4.07919091      -4.37089827      11.89870619
H        2.78571474      -5.40395269       7.93063370
C        1.99011580      -5.24269726      10.46256246
C        0.89528572      -5.52174135      10.88436515
Br      -0.87496191      -5.97293204      11.56638442
C       -0.00445707       0.01189536      -1.78238275
H       -0.66409135       0.67374010      -2.43557963
H        0.65740317      -0.63156657      -2.45157240
C       -0.90989263      -0.90692880      -0.91072765
C        0.90977584       0.90977584      -0.90977584
C       -0.00465871       1.77757030       0.00794375
H       -0.66225468       2.44313916      -0.64384735
H        0.64322798       2.43503045       0.67728295
C       -1.78241447       0.00034974      -0.00472694
H       -2.45427497      -0.65498947       0.64260836
H       -2.43311707       0.67328779      -0.65473579
C       -0.91132561       0.90220522       0.91563759
C       -0.01476271      -0.02253852       1.78660255
H       -0.67934791      -0.69751639       2.42135241
H        0.63392994       0.61504881       2.47327442
C        0.01484550      -1.77751727      -0.01636693
H        0.67870853      -2.42144646      -0.68295456
H       -0.62264859      -2.45592969       0.64226336
C        1.78714474       0.01002794       0.00389507
H        2.44202412       0.67113390       0.66197326
H        2.45385902      -0.65136977      -0.64189061
C        0.91606151      -0.90478549       0.90901405
