169
Properties=species:S:1:pos:R:3 pbc="F F F"
C        0.00000000       0.00000000       0.00000000
C        0.88203706       0.88203706      -0.88203706
C        1.34812205       0.39469000      -2.10123760
C        2.15960597       1.19981902      -2.90270445
C        2.50480157       2.49703582      -2.49243979
C        2.03288185       2.96955294      -1.25828597
C        1.21991285       2.16537161      -0.45648664
C        3.42534302       3.34632697      -3.33996356
N        4.80426008       3.03197308      -3.03149301
C        5.46732647       2.10430814      -3.73320541
N        5.13418457       1.83191477      -5.02409849
C        6.00019722       0.91473862      -5.38566960
N        6.14666023       0.33003453      -6.60002603
C        5.04333563       0.31900519      -7.53918419
C        4.18772272      -0.91211289      -7.34064625
C        2.85237898      -0.79205866      -6.92817486
C        2.05754777      -1.92839730      -6.75630926
C        2.59732469      -3.19187887      -6.98882628
Br       1.52282205      -4.72971290      -6.75547607
C        3.92284510      -3.33076345      -7.39313721
C        4.71391001      -2.19399867      -7.57197201
N        6.80688189       0.60496055      -4.29707844
N        6.47834834       1.39543466      -3.24281242
C        7.80331904      -0.37268684      -4.20359795
O        8.06379821      -1.08663200      -5.17000571
C        8.46779573      -0.46752954      -2.86338195
H        1.09533644      -0.60902145      -2.43171416
H        2.53731481       0.80768951      -3.84552415
H        2.30097647       3.96546793      -0.91141986
H        0.86304895       2.54526585       0.49729390
H        3.24973988       4.40524599      -3.11417682
H        3.18052232       3.23023107      -4.40327393
H        5.01602747       3.04614347      -2.04110220
H        6.77879598      -0.47024249      -6.67210381
H        5.44516768       0.29855846      -8.55945194
H        4.44218524       1.23449593      -7.47305697
H        2.42351716       0.19012163      -6.73905861
H        1.02275220      -1.81724808      -6.44341491
H        4.34918544      -4.31429013      -7.57266457
H        5.74709223      -2.31439781      -7.89161971
H        8.98164195       0.46691223      -2.62228825
H        9.21354381      -1.26804568      -2.89352809
H        7.73658518      -0.71682099      -2.08909028
C       -0.88203706      -0.88203706      -0.88203706
C       -2.17281356      -0.46766499      -1.20357111
C       -2.97967305      -1.27829205      -2.00416435
C       -2.49906915      -2.50379475      -2.49141329
C       -1.19931827      -2.90943265      -2.15196985
C       -0.39093870      -2.09854246      -1.35228995
C       -3.39420968      -3.40163338      -3.31579049
N       -4.20170279      -4.22505579      -2.44096759
C       -5.42095928      -3.82505086      -2.05882987
N       -6.16070498      -2.99073738      -2.83875546
C       -7.28150111      -2.84762607      -2.17147826
N       -8.39045289      -2.15545710      -2.53081080
C       -8.29786626      -1.09251647      -3.51114228
C       -8.00968191       0.23000025      -2.83657442
C       -6.81044957       0.91208500      -3.09013062
C       -6.54875682       2.14000656      -2.47670948
C       -7.48272883       2.68832250      -1.59986577
Br      -7.12882865       4.34906276      -0.76881933
C       -8.67625907       2.02256167      -1.33152145
C       -8.94001426       0.79921664      -1.95108573
N       -7.18458731      -3.54890870      -0.97542487
N       -5.99460877      -4.20101765      -0.92096900
C       -8.10534916      -3.60532803       0.07644703
O       -9.16575494      -2.98721819       0.00580120
C       -7.67354620      -4.43665423       1.24655229
H       -2.56289786       0.47527364      -0.83040493
H       -3.99433757      -0.95941164      -2.23677926
H       -0.81090760      -3.86299106      -2.50396560
H        0.61326393      -2.42702906      -1.09725578
H       -2.77337207      -4.05777986      -3.93801076
H       -3.98698638      -2.80580676      -4.02123418
H       -3.67015743      -4.70704022      -1.72607549
H       -9.12302608      -2.02858553      -1.82904569
H       -9.25670812      -1.00944321      -4.03702676
H       -7.55135495      -1.31432433      -4.28405885
H       -6.07267137       0.48929082      -3.76931685
H       -5.61793757       2.65886020      -2.68984167
H       -9.40636709       2.44474604      -0.64593884
H       -9.87739697       0.28980652      -1.73672367
H       -7.53906292      -5.47979022       0.94801070
H       -8.45298113      -4.40007249       2.01402740
H       -6.75271819      -4.03796225       1.68182597
C       -0.88203706       0.88203706       0.88203706
C       -1.51217234       0.33439743       1.99747988
C       -2.32322513       1.14050760       2.79839672
C       -2.50426248       2.49824591       2.49176880
C       -1.86819528       3.03197897       1.36054652
C       -1.05555052       2.22668757       0.55953302
C       -3.42395399       3.35492363       3.33275592
N       -4.78752717       3.21170838       2.86849062
C       -5.60082009       2.29546403       3.40855590
N       -5.42675077       1.87312742       4.69031964
C       -6.40562799       1.01913438       4.87584307
N       -6.72761351       0.34309349       6.00601379
C       -5.73091069       0.13392305       7.03669127
C       -4.97645548      -1.15409482       6.79389541
C       -3.60082034      -1.13262324       6.52029808
C       -2.90056155      -2.32304449       6.30794267
C       -3.57504109      -3.54128989       6.36052090
Br      -2.62843752      -5.15212751       6.07227522
C       -4.94184992      -3.58165996       6.62502890
C       -5.63904527      -2.39183944       6.84467752
N       -7.12283892       0.89418550       3.69189646
N       -6.61780254       1.74087489       2.75791798
C       -8.19033728       0.03536773       3.40852514
O       -8.61201326      -0.73433233       4.26949100
C       -8.72139810       0.13205575       2.01019428
H       -1.38759008      -0.71589064       2.24632971
H       -2.82903646       0.70364898       3.65784302
H       -2.00699778       4.07760357       1.09326290
H       -0.57040192       2.65454768      -0.31392870
H       -3.12971702       4.40683657       3.23260909
H       -3.29992440       3.11729998       4.39680294
H       -4.89558251       3.33830798       1.86938265
H       -7.43471213      -0.39218728       5.93813244
H       -6.23428485       0.06057073       8.00832250
H       -5.04451223       0.98592718       7.11929872
H       -3.06648495      -0.18577716       6.47198961
H       -1.83356033      -2.28908034       6.10443904
H       -5.47283920      -4.52921347       6.66393416
H       -6.70598382      -2.43575116       7.05408146
H       -9.12001694       1.13197400       1.81885150
H       -9.53681007      -0.58808610       1.89030225
H       -7.94149485      -0.11781005       1.28516968
C        0.88203706      -0.88203706       0.88203706
C        2.18793924      -0.48895069       1.16715972
C        2.99458358      -1.29970860       1.96783727
C        2.49880370      -2.50395456       2.49151893
C        1.18372893      -2.88849568       2.18849615
C        0.37559051      -2.07742258       1.38875801
C        3.39235768      -3.40328905       3.31598682
N        4.16315249      -4.26229585       2.44227783
C        5.38205438      -3.89691135       2.02587428
N        6.15596988      -3.06246791       2.77176004
C        7.26485856      -2.95776392       2.07798296
N        8.39571335      -2.28227813       2.39872931
C        8.34684573      -1.19708239       3.35759688
C        8.07219286       0.11678668       2.66084990
C        6.89341988       0.82984372       2.92491902
C        6.64456681       2.04988196       2.29077488
C        7.57075997       2.55920953       1.38272166
Br       7.23419480       4.20925726       0.52364769
C        8.74385918       1.86227933       1.10363900
C        8.99500334       0.64690091       1.74378092
N        7.12730122      -3.68193518       0.89968449
N        5.92289382      -4.30917789       0.88452370
C        8.02371322      -3.78048367      -0.16996673
O        9.09823777      -3.18408142      -0.13514726
C        7.54922951      -4.62685179      -1.31243317
H        2.58972867       0.43723050       0.76553098
H        4.02055796      -0.99798358       2.17198693
H        0.78293012      -3.82577586       2.56915828
H       -0.64061456      -2.38944983       1.16218564
H        2.77137099      -4.03255276       3.96523894
H        4.01271606      -2.80562256       3.99568869
H        3.60620171      -4.74769555       1.74937588
H        9.11546770      -2.18614511       1.67904449
H        9.31837285      -1.12364558       3.86115965
H        7.61268899      -1.38630171       4.15074744
H        6.16171424       0.43755828       3.62854144
H        5.72975705       2.59312591       2.51228789
H        9.46774699       2.25398569       0.39379858
H        9.91654677       0.11292828       1.52069563
H        7.39919143      -5.66028782      -0.98863682
H        8.31249373      -4.62337033      -2.09683785
H        6.62784971      -4.21764838      -1.73664362
