161
Properties=species:S:1:pos:R:3 pbc="F F F"
C        0.00000000       0.00000000       0.00000000
C        0.88162558       0.88162558      -0.88162558
C        1.98365921       0.32998075      -1.52994622
C        2.78947066       1.13705697      -2.33945642
C        2.49189076       2.49611766      -2.51596739
C        1.38872598       3.03746045      -1.84075113
C        0.58167213       2.23313877      -1.02993865
C        3.31609692       3.38351277      -3.34930697
C        3.92690811       2.98884455      -4.47708961
C        4.68474540       3.96341998      -5.32077493
N        4.24764041       5.18474273      -5.40000396
C        4.86235543       6.06431465      -6.29266235
C        4.42563074       7.39067747      -6.34070775
C        4.98952075       8.29527225      -7.24452172
C        5.99614532       7.87720139      -8.11316294
C        6.43981883       6.55627894      -8.07331014
C        5.86809583       5.65806522      -7.16145160
C        6.34171751       4.26705485      -7.06677031
O        7.23990036       3.91370845      -7.83088434
N        5.75230108       3.47249808      -6.07248187
C        6.34537378       2.19068716      -5.81451614
C        6.71939451       1.82801875      -4.50984498
C        7.32521957       0.59308326      -4.25911050
C        7.55680906      -0.28952883      -5.31132915
Br       8.37791555      -1.95776307      -4.97399000
C        7.19663061       0.05423433      -6.61153632
C        6.60224023       1.29447434      -6.86221746
H        2.22672272      -0.72272996      -1.41191206
H        3.65318378       0.68725864      -2.82302261
H        1.13762199       4.09082228      -1.95052496
H       -0.27484716       2.67069597      -0.52380833
H        3.37780426       4.42200239      -3.02865025
H        3.83161227       1.97892365      -4.85927498
H        3.63520006       7.71755807      -5.66984209
H        4.63971178       9.32434936      -7.27057654
H        6.43646437       8.57851497      -8.81785288
H        7.23104248       6.22999236      -8.74494893
H        6.58688446       2.51938054      -3.68007531
H        7.62660099       0.33896342      -3.24600654
H        7.38087718      -0.62630451      -7.43890621
H        6.33274734       1.54725759      -7.88588217
C       -0.88162558      -0.88162558      -0.88162558
C       -2.12674061      -0.41812651      -1.29871905
C       -2.93292845      -1.22471202      -2.10834358
C       -2.49484670      -2.49299816      -2.51613095
C       -1.24602431      -2.94962006      -2.07129318
C       -0.43808062      -2.14572210      -1.26094682
C       -3.31239651      -3.37806114      -3.35845901
C       -4.12512217      -2.93685941      -4.33086069
C       -4.86803057      -3.89655022      -5.20435952
N       -4.29632092      -5.02173016      -5.51433603
C       -4.91787310      -5.86126005      -6.44019928
C       -4.32875120      -7.09351407      -6.73475069
C       -4.89888319      -7.94882445      -7.68160708
C       -6.06543376      -7.57475441      -8.34632148
C       -6.66187526      -6.34781182      -8.05972082
C       -6.08208451      -5.49864409      -7.10688405
C       -6.70881999      -4.21418605      -6.75253664
O       -7.74562693      -3.90111604      -7.33775018
N       -6.08662722      -3.47458733      -5.73606648
C       -6.79312767      -2.33522682      -5.22222258
C       -7.01686960      -2.19830307      -3.84208558
C       -7.73101273      -1.10587876      -3.34052184
C       -8.22226056      -0.14041200      -4.21593682
Br      -9.18983829       1.33508769      -3.53939189
C       -8.01384324      -0.26135326      -5.58720475
C       -7.31024386      -1.36064727      -6.08804091
H       -2.48110955       0.56481087      -0.99960613
H       -3.90742597      -0.84742362      -2.40861544
H       -0.88248536      -3.93307420      -2.36340966
H        0.53108184      -2.51489004      -0.93584894
H       -3.19532406      -4.44661990      -3.18651295
H       -4.21454288      -1.88369755      -4.57157048
H       -3.41454467      -7.38445354      -6.22360202
H       -4.42941279      -8.90471312      -7.90051177
H       -6.51111051      -8.23781208      -9.08390962
H       -7.57689702      -6.05747259      -8.57161417
H       -6.67924879      -2.96235461      -3.14473690
H       -7.91202243      -1.02812798      -2.27142055
H       -8.40052086       0.48427526      -6.27723328
H       -7.16222738      -1.44037471      -7.16328501
C       -0.88162558       0.88162558       0.88162558
C       -0.31423475       1.93441428       1.59493714
C       -1.12231767       2.74337415       2.40029222
C       -2.50295870       2.51328585       2.48773125
C       -3.05306103       1.43751613       1.77636040
C       -2.24742751       0.62635953       0.97096251
C       -3.38852103       3.33176006       3.32863556
C       -3.21956153       4.64846550       3.52481524
C       -4.20402994       5.43724264       4.32766773
N       -5.45934057       5.10643332       4.26661321
C       -6.40235183       5.91955210       4.89742849
C       -7.74581075       5.53629473       4.87491049
C       -8.72678480       6.33905760       5.46347232
C       -8.37019997       7.53797712       6.07833256
C       -7.03265899       7.92967686       6.10707206
C       -6.05698124       7.11568845       5.51494296
C       -4.63138656       7.48114919       5.56300692
O       -4.32823744       8.53632187       6.11993385
N       -3.73142969       6.56209848       5.00375287
C       -2.33186721       6.78690828       5.23180159
C       -1.52399877       5.76858516       5.76467431
C       -0.16721988       5.99335025       6.01684320
C        0.39175332       7.23710639       5.73325631
Br       2.22478628       7.54281199       6.07611677
C       -0.39413182       8.25964533       5.20862410
C       -1.75324681       8.03703131       4.96865392
H        0.75247040       2.13371079       1.53466441
H       -0.65414715       3.54962904       2.95968884
H       -4.11972714       1.22802069       1.83122139
H       -2.69592330      -0.19594976       0.41968360
H       -4.24331120       2.81895528       3.76619043
H       -2.41709794       5.20198344       3.05072953
H       -8.02784004       4.60559353       4.38916665
H       -9.76826268       6.02803153       5.43834347
H       -9.13120283       8.16497180       6.53665758
H       -6.75123213       8.86119736       6.59355429
H       -1.94920706       4.80369152       6.03344172
H        0.43704557       5.19966637       6.44895016
H        0.03337732       9.23523136       4.99162484
H       -2.35223531       8.85028040       4.56337140
C        0.88162558      -0.88162558       0.88162558
C        0.31680854      -1.94377547       1.58300216
C        1.12491791      -2.75271517       2.38835096
C        2.50314642      -2.51317295       2.48765644
C        3.05049212      -1.42818421       1.78826122
C        2.24481613      -0.61702965       0.98290377
C        3.38854085      -3.33132131       3.32905450
C        3.22786807      -4.65064038       3.51433382
C        4.21222282      -5.43808818       4.31862931
N        5.46547213      -5.09765271       4.26926226
C        6.40981152      -5.90847520       4.90104571
C        7.75053517      -5.51523325       4.89124755
C        8.73306834      -6.31511062       5.48113576
C        8.38084507      -7.52111319       6.08455139
C        7.04605575      -7.92279961       6.10055254
C        6.06876190      -7.11163220       5.50721854
C        4.64558853      -7.48786850       5.54208565
O        4.34616183      -8.54931323       6.08901810
N        3.74299557      -6.57133244       4.98295303
C        2.34349714      -6.80806263       5.19901730
C        1.52425677      -5.79964258       5.73335889
C        0.16736264      -6.03619267       5.97385802
C       -0.38032727      -7.28188313       5.67705352
Br      -2.21351678      -7.60352643       6.00413283
C        0.41690174      -8.29474058       5.15075893
C        1.77605837      -8.06041433       4.92245933
H       -0.74792718      -2.15042881       1.51340317
H        0.65862418      -3.56648236       2.93835849
H        4.11515320      -1.21129285       1.85252317
H        2.69125830       0.21258709       0.44098594
H        4.23629693      -2.81551216       3.77664783
H        2.43300366      -5.20650775       3.03029950
H        8.02924018      -4.57893312       4.41442693
H        9.77237930      -5.99628844       5.46596994
H        9.14307598      -8.14588202       6.54387421
H        6.76795378      -8.85992003       6.57810996
H        1.94035492      -4.83366987       6.01231551
H       -0.44589042      -5.25016515       6.40729623
H       -0.00179740      -9.27180389       4.92347238
H        2.38398267      -8.86624255       4.51566189
