193
Properties=species:S:1:pos:R:3 pbc="F F F"
C        0.00000000       0.00000000       0.00000000
C        0.88199410       0.88199410      -0.88199410
C        1.35898041       2.09456415      -0.38912992
C        2.15865275       2.90547794      -1.19825091
C        2.49074733       2.50759288      -2.50253462
C        2.00830027       1.27796541      -2.97866063
C        1.20268280       0.46898081      -2.17295296
C        3.32318797       3.39894322      -3.39567561
N        4.64276112       3.62285576      -2.85622380
C        5.68001986       2.83882677      -3.15438538
N        6.88210102       3.13368158      -2.59317065
C        7.69634597       2.23649220      -3.10122140
N        9.02911115       2.11538943      -2.88845169
C        9.77697208       3.25107668      -2.39008617
C       11.21777684       3.12899767      -2.83311591
C       11.60490195       3.58103172      -4.10507511
C       12.92657799       3.44626368      -4.53497170
C       13.86682984       2.85082775      -3.69720534
C       13.49618406       2.38267929      -2.43796022
C       12.17308490       2.51673780      -2.00907095
N        6.98023542       1.40603981      -3.96104647
N        5.68178609       1.80496935      -3.98322163
C        7.44193113       0.32037142      -4.73492070
O        8.62894352       0.01592441      -4.59412318
C        6.58331557      -0.41331073      -5.65085883
C        6.77766627      -1.63159314      -6.27959730
C        5.63145962      -1.87197272      -7.07574712
C        4.81603542      -0.77959162      -6.90861984
O        5.38534386       0.10690305      -6.05726718
H        1.11495129       2.41808985       0.61893736
H        2.52338894       3.85160086      -0.80575846
H        2.26067767       0.94228944      -3.98314356
H        0.83402498      -0.47687408      -2.56078793
H        2.80901310       4.36328390      -3.48951524
H        3.36807058       2.99513376      -4.41572871
H        4.73944867       4.29014167      -2.10496204
H        9.56498087       1.42878994      -3.42484634
H        9.71901909       3.29266400      -1.29587695
H        9.37453733       4.20042861      -2.76775633
H       10.87297056       4.03789416      -4.76865852
H       13.20934347       3.80424042      -5.52133825
H       14.22585605       1.90957288      -1.78611109
H       11.88938013       2.13708727      -1.02948021
H        7.64436692      -2.26870089      -6.16193154
H        5.42651192      -2.73115626      -7.69884939
H        3.85095690      -0.49346544      -7.30343918
C       15.23081405       2.71430673      -4.13823718
C       16.37315083       2.59997037      -4.50760135
Br      18.22021278       2.41509816      -5.10483197
C       -0.88199410      -0.88199410      -0.88199410
C       -2.26131066      -0.68683789      -0.89452593
C       -3.06920725      -1.49867233      -1.69450202
C       -2.50361540      -2.50678022      -2.49047920
C       -1.11070486      -2.68251484      -2.47170661
C       -0.30199569      -1.87578711      -1.66683376
C       -3.37658941      -3.41329448      -3.32792291
N       -4.10969525      -2.68034811      -4.33179732
C       -3.63294511      -2.47898913      -5.56129777
N       -4.40078482      -1.77450408      -6.43366435
C       -3.70329287      -1.78378388      -7.54698283
N       -4.04659727      -1.24455901      -8.74179599
C       -5.43871809      -0.95875569      -9.02066116
C       -5.66368581      -1.00064142     -10.51556319
C       -5.90790526      -2.22545142     -11.15765211
C       -6.08782484      -2.27864557     -12.54134297
C       -6.01629777      -1.10706058     -13.29150458
C       -5.75929330       0.11469059     -12.67222086
C       -5.57805287       0.16684368     -11.28768446
N       -2.52010918      -2.48950639      -7.33770613
N       -2.48778290      -2.92941655      -6.05277763
C       -1.47992429      -2.76786157      -8.24943740
O       -1.59280141      -2.27267205      -9.37351765
C       -0.32986217      -3.58764204      -7.90335945
C        0.88115432      -3.75270437      -8.55412038
C        1.63547380      -4.67815046      -7.79255737
C        0.83609563      -5.04379877      -6.73736049
O       -0.35217717      -4.39666250      -6.80067442
H       -2.71710016       0.09033656      -0.28734018
H       -4.14498598      -1.34077584      -1.69498645
H       -0.64705227      -3.45075628      -3.08830211
H        0.77366323      -2.03035952      -1.66124254
H       -4.08964353      -3.91203669      -2.66013203
H       -2.78310794      -4.22273059      -3.77309453
H       -4.92825659      -2.16725588      -4.03903990
H       -3.45236662      -1.40809695      -9.55815358
H       -5.71040119       0.02669591      -8.62385476
H       -6.10690894      -1.68965991      -8.54615343
H       -5.95481695      -3.14600038     -10.57870592
H       -6.27876656      -3.23471649     -13.02143908
H       -5.69398675       1.02882889     -13.25638215
H       -5.36523690       1.12304591     -10.81375662
H        1.17875961      -3.25089638      -9.46546080
H        2.63504178      -5.03908176      -7.99016507
H        0.95647464      -5.71731183      -5.90009345
C       -6.20494628      -1.16031111     -14.71810057
C       -6.36293940      -1.20490843     -15.91287472
Br      -6.61840092      -1.27701853     -17.84472346
C       -0.88199410       0.88199410       0.88199410
C       -0.69356738       0.88681254       2.26229455
C       -1.50544051       1.68680820       3.07013289
C       -2.50684445       2.49049509       2.50353528
C       -2.67581372       2.47940703       1.10970555
C       -1.86906717       1.67454384       0.30100556
C       -3.41353186       3.32810467       3.37617027
N       -2.67929516       4.32475968       4.11778585
C       -2.46957600       5.55557393       3.64808207
N       -1.76461467       6.42069425       4.42364433
C       -1.76501199       7.53744639       3.73160120
N       -1.22163952       8.72789705       4.08341570
C       -0.94132695       8.99853374       5.47827424
C       -0.97699968      10.49250443       5.71038630
C       -2.19983815      11.13940821       5.95176242
C       -2.24714188      12.52244660       6.13822490
C       -1.07156052      13.26717621       6.07612621
C        0.14839374      12.64315472       5.82206260
C        0.19465879      11.25928241       5.63427004
N       -2.46592090       7.33743952       2.54396128
N       -2.91195224       6.05486457       2.50316027
C       -2.73468804       8.25561090       1.50692431
O       -2.23456246       9.37667514       1.62775350
C       -3.55048488       7.91920509       0.35117370
C       -3.70639907       8.57669139      -0.85742004
C       -4.63184016       7.82339290      -1.61999903
C       -5.00657864       6.76610677      -0.82762178
O       -4.36499421       6.82041770       0.36410218
H        0.07837320       0.27358630       2.71889068
H       -1.35283821       1.68124893       4.14666112
H       -3.43873676       3.10203736       0.64533656
H       -2.01837105       1.67497950      -0.77541172
H       -3.91903963       2.65929265       4.08347996
H       -4.21784909       3.78015353       2.78093043
H       -2.17167586       4.02547738       4.93739914
H       -1.37825318       9.54794883       3.49241514
H        0.04082154       8.59555843       5.75282315
H       -1.67782414       8.52436209       6.14053605
H       -3.12343018      10.56477534       5.99131773
H       -3.20177872      13.00630013       6.32684329
H        1.06569129      13.22312416       5.76410714
H        1.14956475      10.78170344       5.42380892
H       -3.19867719       9.48699803      -1.14807765
H       -4.98687751       8.02766533      -2.62033779
H       -5.68358236       5.93276289      -0.95541461
C       -1.11875351      14.69307623       6.27152822
C       -1.15827764      15.88726750       6.43517741
Br      -1.22218482      17.81817378       6.69978431
C        0.88199410      -0.88199410       0.88199410
C        2.04486092      -0.35672330       1.44109026
C        2.85621591      -1.16529231       2.24087339
C        2.50813668      -2.50171300       2.49102514
C        1.32768159      -3.01081864       1.92642607
C        0.51870040      -2.20526990       1.12064627
C        3.40235249      -3.39193523       3.32351908
N        3.53685031      -2.90847609       4.67651427
C        2.72051169      -3.29421681       5.65850350
N        2.93024754      -2.77988861       6.89881710
C        2.02190977      -3.36932830       7.64282150
N        1.82773967      -3.22870353       8.97650906
C        2.90086282      -2.71496995       9.80230216
C        2.73307194      -3.23400294      11.21281553
C        3.22873176      -4.50083408      11.56144294
C        3.05324722      -5.00146881      12.85309735
C        2.37343303      -4.24024765      13.80118226
C        1.86154871      -2.98767580      13.46759907
C        2.03644230      -2.48800907      12.17444228
N        1.26969467      -4.23085924       6.84676778
N        1.72999478      -4.16993666       5.57004564
C        0.20308858      -5.07694299       7.21719169
O       -0.16356585      -5.00955343       8.39300353
C       -0.44308891      -5.98284379       6.28110878
C       -1.63657762      -6.67715518       6.38509286
C       -1.78297586      -7.42606585       5.19214404
C       -0.66297976      -7.16749344       4.44054996
O        0.15248570      -6.30451031       5.09251807
H        2.32925882       0.67631120       1.26115617
H        3.76351560      -0.74716471       2.67006796
H        1.03059098      -4.04126294       2.11425675
H       -0.38837745      -2.61854424       0.68777204
H        4.39331870      -3.41465965       2.85383389
H        3.04783883      -4.43085908       3.30023514
H        4.16084976      -2.13229980       4.84140282
H        1.14402383      -3.82272140       9.45187192
H        2.89094828      -1.61849101       9.79812075
H        3.88565077      -3.02709634       9.42997517
H        3.75185887      -5.10511823      10.82254614
H        3.44585907      -5.98264532      13.10641776
H        1.32290266      -2.39575241      14.20288494
H        1.62258683      -1.51456772      11.91879306
H       -2.31887193      -6.63267664       7.22379285
H       -2.59966196      -8.07807166       4.91579535
H       -0.31249697      -7.50015488       3.47327272
C        2.19475621      -4.75416745      15.13443431
C        2.04511437      -5.18457528      16.25103290
Br       1.80315617      -5.88050834      18.05647839
