173
Properties=species:S:1:pos:R:3 pbc="F F F"
C        0.00000000       0.00000000       0.00000000
C        0.88105207       0.88105207      -0.88105207
C        0.34535235       1.47605044      -2.02099944
C        1.15338877       2.28443865      -2.82731352
C        2.50142183       2.50293806      -2.50100711
C        3.02635663       1.87788851      -1.35967811
C        2.21766430       1.07790246      -0.54662557
N        3.33590850       3.32049872      -3.33505056
C        2.94354019       4.58446882      -3.76990080
C        1.76358463       5.21525515      -3.11172258
C        0.88731813       5.92041063      -3.84291936
C       -0.24740984       6.65123407      -3.25610403
C       -1.04221125       6.05579161      -2.26421516
C       -2.14042230       6.73814456      -1.73346215
C       -2.47777629       8.00888288      -2.19166026
C       -1.70620470       8.60594958      -3.18635775
C       -0.59855180       7.93502736      -3.70578168
O        0.12082233       8.61606166      -4.65129266
N        3.60560684       5.29690574      -4.63188938
C        4.79789793       4.78698128      -5.14896827
C        5.50737053       5.54889365      -6.08110411
C        6.72175479       5.09211695      -6.59962192
C        7.23796554       3.86488976      -6.18786810
C        6.53912396       3.09716905      -5.25692968
C        5.32386021       3.56665024      -4.74021259
C        4.55523250       2.77323138      -3.76375588
O        5.01210447       1.68287843      -3.42486288
H       -0.69201404       1.30496204      -2.29951776
H        0.72427669       2.70153331      -3.73607050
H        4.06983511       2.01640948      -1.08251581
H        2.64538036       0.61028732       0.33645716
H        1.70086589       5.13584405      -2.03249696
H        1.00704007       5.99990524      -4.92165188
H       -0.81538120       5.05516681      -1.90394404
H       -3.33290150       8.54119905      -1.78356365
H       -1.95789534       9.59827449      -3.55063420
H        0.99769413       8.20435783      -4.73448797
H        5.11132617       6.51032474      -6.39896873
H        7.26433788       5.69700087      -7.32180887
H        8.18217979       3.50625768      -6.59026290
H        6.93924385       2.13726343      -4.93709594
C       -2.93319600       6.11716743      -0.70414331
C       -3.59714397       5.59709908       0.15791121
Br      -4.67069169       4.75619254       1.55178046
C       -0.88105207      -0.88105207      -0.88105207
C       -0.52602024      -1.10749150      -2.20889048
C       -1.33358546      -1.91618816      -3.01536733
C       -2.50103841      -2.50294578      -2.50138281
C       -2.85114803      -2.24558230      -1.16719292
C       -2.03978892      -1.44601374      -0.35638967
N       -3.33861279      -3.32137692      -3.33146808
C       -2.82834769      -4.35234665      -4.11721548
C       -1.42957807      -4.80055413      -3.86043015
C       -0.63295439      -5.12905428      -4.88863944
C        0.72477995      -5.66982218      -4.71488603
C        1.60350559      -5.10227798      -3.77902314
C        2.90410163      -5.59484064      -3.64044539
C        3.35769802      -6.64079322      -4.43967166
C        2.50076830      -7.20389586      -5.38297507
C        1.19598809      -6.72658843      -5.51165690
O        0.41622594      -7.36676048      -6.43764211
N       -3.52791115      -5.02474072      -4.98175009
C       -4.88248260      -4.72128426      -5.13008061
C       -5.63440755      -5.43876903      -6.06419171
C       -7.00036073      -5.19091155      -6.22222138
C       -7.62721108      -4.21973264      -5.44377967
C       -6.88679972      -3.49898278      -4.50744018
C       -5.51803543      -3.75840780      -4.35427981
C       -4.70522850      -3.00533371      -3.38165755
O       -5.26681452      -2.13697688      -2.71605438
H        0.36538340      -0.64798090      -2.62986825
H       -1.05938901      -2.04164795      -4.06084355
H       -3.75483990      -2.67522061      -0.73869990
H       -2.32821661      -1.26721240       0.67621849
H       -1.13105713      -4.91361105      -2.82453871
H       -0.98569676      -5.02956971      -5.91333073
H        1.28321291      -4.26943335      -3.15750921
H        4.36938282      -7.02430610      -4.33693792
H        2.84225908      -8.02222717      -6.01104525
H       -0.51707499      -7.16463417      -6.25483077
H       -5.15019007      -6.20246190      -6.66796767
H       -7.57341462      -5.75902952      -6.95070348
H       -8.68974959      -4.02384654      -5.56510423
H       -7.37415271      -2.73807383      -3.90137668
C        3.78487718      -5.01048405      -2.66250787
C        4.52252671      -4.52108541      -1.84348520
Br       5.71524361      -3.72976920      -0.51919480
C       -0.88105207       0.88105207       0.88105207
C       -2.20229549       1.12611822       0.51398851
C       -3.00946862       1.93284834       1.32282400
C       -2.50220240       2.50063095       2.50253366
C       -1.16290379       2.25769643       2.84332304
C       -0.35742258       1.44309641       2.04167334
N       -3.32471727       3.34044374       3.32629677
C       -4.60732016       2.96810703       3.72248263
C       -5.01277393       1.54590270       3.53188573
C       -6.26087602       1.25334301       3.13642909
C       -6.76618835      -0.12382569       3.01756559
C       -5.98245823      -1.12104993       2.41638723
C       -6.47815839      -2.41992620       2.27295222
C       -7.76212410      -2.74305979       2.70370255
C       -8.55650939      -1.75935647       3.28894971
C       -8.05828386      -0.46604216       3.45001554
O       -8.89642535       0.42223354       4.06951776
N       -5.43257008       3.75145580       4.35037607
C       -5.01584130       5.04393897       4.67406720
C       -5.90453214       5.88970759       5.34312856
C       -5.51807368       7.17968903       5.71573096
C       -4.23446645       7.63528717       5.42096977
C       -3.33899662       6.79910606       4.75512000
C       -3.73567653       5.50557568       4.38947082
C       -2.81644908       4.60169464       3.67407605
O       -1.69389260       5.02394549       3.40200769
H       -2.60823060       0.70909375      -0.40485859
H       -4.02391899       2.14593677       0.99202474
H       -0.73331851       2.69041967       3.74502222
H        0.67495712       1.26364980       2.33051783
H       -4.28565983       0.78685647       3.79669059
H       -6.96876316       2.04863229       2.91120175
H       -4.98467402      -0.89116604       2.05022167
H       -8.15211722      -3.75119256       2.59093654
H       -9.55940755      -1.99968010       3.63128589
H       -8.37380330       1.17986024       4.38287639
H       -6.90432376       5.53490357       5.58139231
H       -6.21902826       7.82555502       6.23856434
H       -3.93109282       8.63890823       5.70869932
H       -2.33763747       7.15466041       4.52130534
C       -5.65208220      -3.43319620       1.66922874
C       -4.96024339      -4.28180982       1.16361033
Br      -3.84159854      -5.65394627       0.34606812
C        0.88105207      -0.88105207       0.88105207
C        2.03330464      -1.45758002       0.35151756
C        2.84090315      -2.26404028       1.16019752
C        2.50254281      -2.50063294       2.50219125
C        1.32703000      -1.92689416       3.00999910
C        0.52392497      -1.11197663       2.20629072
N        3.32233830      -3.33958014       3.32953933
C        4.70407119      -3.18225543       3.41158319
C        5.29939029      -1.93151057       2.85966149
C        6.46795496      -1.98016579       2.20252737
C        7.16667663      -0.78136568       1.71188596
C        6.45807295       0.23929502       1.05901760
C        7.12889044       1.36052979       0.56282377
C        8.51071151       1.47617291       0.68822825
C        9.22855520       0.46354164       1.32108908
C        8.55996776      -0.64877125       1.83351823
O        9.34356234      -1.57284618       2.47176814
N        5.49510588      -4.00119593       4.03810014
C        4.93923900      -5.10179021       4.69281826
C        5.78921413      -5.98702790       5.36112626
C        5.27318000      -7.08313983       6.05717383
C        3.89742498      -7.30290282       6.09039560
C        3.03994759      -6.42491524       5.42835985
C        3.56789041      -5.32633548       4.73649714
C        2.68881489      -4.38674501       4.01665987
O        1.47856699      -4.60431780       4.03696099
H        2.30293080      -1.29983898      -0.69030402
H        3.71102466      -2.73912775       0.71172809
H        1.02833675      -2.09773363       4.04269003
H       -0.37805903      -0.67273277       2.62453678
H        4.78604481      -1.00269907       3.08046302
H        6.96485941      -2.93299906       2.03073873
H        5.38130491       0.16443982       0.92686456
H        9.03612392       2.34507739       0.30081467
H       10.30704103       0.54326309       1.42723540
H        8.77580188      -2.13824342       3.02249463
H        6.86259072      -5.81441639       5.34361252
H        5.94623099      -7.76177807       6.57513856
H        3.49288817      -8.15549550       6.63031670
H        1.96586721      -6.59715291       5.45058309
C        6.38176427       2.40508525      -0.08856427
C        5.75604611       3.27990045      -0.63410175
Br       4.74431275       4.69440265      -1.51618972
