194
Properties=species:S:1:pos:R:3 pbc="F F F"
C        1.79095609       1.79095609      -1.79095609
C        1.25525637       2.38595446      -2.93090346
C        2.06329280       3.19434268      -3.73721755
C        3.41132586       3.41284209      -3.41091114
C        3.93626065       2.78779254      -2.26958214
C        3.12756832       1.98780649      -1.45652959
N        4.24581252       4.23040274      -4.24495459
C        3.85344422       5.49437284      -4.67980483
C        2.67348865       6.12515917      -4.02162660
C        1.79722215       6.83031465      -4.75282338
C        0.66249418       7.56113810      -4.16600806
C       -0.13230723       6.96569564      -3.17411919
C       -1.23051827       7.64804859      -2.64336617
C       -1.56787226       8.91878691      -3.10156428
C       -0.79630067       9.51585360      -4.09626178
C        0.31135223       8.84493138      -4.61568570
O        1.03072635       9.52596568      -5.56119669
N        4.51551086       6.20680976      -5.54179341
C        5.70780195       5.69688530      -6.05887229
C        6.41727455       6.45879767      -6.99100814
C        7.63165881       6.00202097      -7.50952595
C        8.14786957       4.77479378      -7.09777212
C        7.44902798       4.00707307      -6.16683370
C        6.23376423       4.47655426      -5.65011661
C        5.46513652       3.68313540      -4.67365991
O        5.92200849       2.59278246      -4.33476691
H        0.21788998       2.21486606      -3.20942178
H        1.63418072       3.61143733      -4.64597453
H        4.97973913       2.92631351      -1.99241984
H        3.55528439       1.52019134      -0.57344686
H        2.61076991       6.04574807      -2.94240098
H        1.91694410       6.90980926      -5.83155591
H        0.09452282       5.96507084      -2.81384806
H       -2.42299747       9.45110308      -2.69346767
H       -1.04799132      10.50817851      -4.46053822
H        1.90759815       9.11426186      -5.64439199
H        6.02123020       7.42022876      -7.30887275
H        8.17424191       6.60690489      -8.23171290
H        9.09208381       4.41616170      -7.50016692
H        7.84914787       3.04716745      -5.84699996
C       -2.02329197       7.02707145      -1.61404734
C       -2.68723995       6.50700310      -0.75199282
Br      -3.76078767       5.66609657       0.64187644
C       -1.79095609      -1.79095609      -1.79095609
C       -2.48684706      -1.22730244      -2.85796480
C       -3.29323837      -2.03589214      -3.66572252
C       -3.41057118      -3.41195505      -3.41255285
C       -2.71722847      -3.95581157      -2.32059528
C       -1.90241382      -3.15122775      -1.51826284
N       -4.24889663      -4.24068849      -4.23158473
C       -4.18947682      -4.21498686      -5.62315821
C       -3.02767541      -3.53169684      -6.26090217
C       -3.20846826      -2.80071353      -7.37117840
C       -2.10179282      -2.17509447      -8.11275304
C       -1.07888961      -1.49872801      -7.42988998
C       -0.04768704      -0.87528535      -8.13792410
C       -0.02673905      -0.89581404      -9.52992584
C       -1.04372618      -1.55103985     -10.22104868
C       -2.06509538      -2.18981592      -9.51705801
O       -2.99850173      -2.83926627     -10.28012072
N       -5.01965802      -4.84443053      -6.40002547
C       -6.02790622      -5.61608723      -5.81956610
C       -6.92553333      -6.28795786      -6.65358917
C       -7.92942489      -7.09764025      -6.11614060
C       -8.04342784      -7.24224140      -4.73476622
C       -7.15202128      -6.57766899      -3.89324448
C       -6.14627079      -5.77114215      -4.44302217
C       -5.19597369      -5.04598010      -3.57997805
O       -5.32100177      -5.16611101      -2.36244507
H       -2.42207295      -0.16047995      -3.05962493
H       -3.86161982      -1.56486360      -4.46510917
H       -2.79350320      -5.01653639      -2.08843290
H       -1.36941225      -3.59706018      -0.68245016
H       -2.05020847      -3.71779906      -5.83091144
H       -4.20521803      -2.66629503      -7.78679620
H       -1.08241654      -1.44734151      -6.34368368
H        0.77178139      -0.40941873     -10.08393594
H       -1.03728568      -1.57607338     -11.30736635
H       -3.48063382      -3.46848631      -9.71713187
H       -6.83486099      -6.18341585      -7.73205488
H       -8.61876662      -7.61682294      -6.77727015
H       -8.82415724      -7.87077705      -4.31347815
H       -7.24194347      -6.68691704      -2.81445478
C        1.00195492      -0.20128021      -7.41850154
C        1.88103006       0.36319911      -6.81598514
Br       3.30242021       1.27591441      -5.84176709
C       -1.79095609       1.79095609       1.79095609
C       -2.39087884       1.25366619       2.92756927
C       -3.19732435       2.06232995       3.73519872
C       -3.41054220       3.41206853       3.41246834
C       -2.81338233       3.92799718       2.25225583
C       -1.99847545       3.12412309       1.44930586
N       -4.24938112       4.23968401       4.23210472
C       -4.11034866       4.30037442       5.61689881
C       -2.87584520       3.72275972       6.22166950
C       -2.94999334       3.05025862       7.38010823
C       -1.76802778       2.53321000       8.08840255
C       -0.74665613       1.87594999       7.38490147
C        0.35807402       1.35482525       8.06414525
C        0.45603204       1.45945178       9.44905919
C       -0.55771843       2.09646751      10.16162877
C       -1.65333499       2.63366830       9.48496603
O       -2.57939477       3.27391859      10.26457536
N       -4.93156134       4.92731510       6.40523759
C       -6.01507412       5.60505216       5.84343326
C       -6.90281998       6.27389051       6.69036987
C       -7.98183831       6.99233462       6.16903281
C       -8.18178508       7.04768121       4.79096918
C       -7.30109577       6.38531953       3.93651945
C       -6.21971933       5.67085997       4.46985580
C       -5.27793611       4.95014220       3.59385352
O       -5.47819546       4.99024861       2.38111378
H       -2.25137674       0.20609993       3.18470116
H       -3.69074336       1.60857115       4.59227807
H       -2.96569866       4.96702085       1.96575297
H       -1.54086420       3.54860869       0.55944970
H       -1.93695083       3.93758600       5.72438213
H       -3.91199545       2.88500054       7.86131328
H       -0.80821010       1.75978042       6.30545120
H        1.31202820       1.05264150       9.98095998
H       -0.49168332       2.18654333      11.24249876
H       -3.12908726       3.84033553       9.69682922
H       -6.74555311       6.23909700       7.76568160
H       -8.66262249       7.51040793       6.83982927
H       -9.02105818       7.60506695       4.38228730
H       -7.45791379       6.42482613       2.86057536
C        1.40389708       0.69924314       7.32248076
C        2.27977389       0.15019312       6.70133674
Br       3.69599261      -0.73757433       5.69699941
C        1.79095609      -1.79095609       1.79095609
C        1.40007965      -2.07442757       3.09760707
C        2.20771973      -2.88308563       3.90404766
C        3.41099641      -3.41285944       3.41122323
C        3.79610660      -3.09844450       2.09908423
C        2.98513328      -2.29888158       1.28788954
N        4.24816273      -4.23105561       4.24195151
C        3.74777890      -5.30470298       4.97514001
C        2.37447754      -5.78995977       4.65583712
C        1.55594180      -6.17974038       5.64467800
C        0.22405017      -6.75893873       5.40665144
C       -0.64211348      -6.18908170       4.46053937
C       -1.91975032      -6.71944172       4.26120509
C       -2.36346303      -7.80663869       5.00930327
C       -1.51946940      -8.37303673       5.96224738
C       -0.23680215      -7.85743664       6.15133481
O        0.53332787      -8.50278043       7.08178042
N        4.44094291      -5.98278363       5.84038749
C        5.77865360      -5.63986002       6.04504592
C        6.52335925      -6.36362983       6.98009129
C        7.87402334      -6.07619720       7.19298519
C        8.49266745      -5.05865885       6.46910917
C        7.75942421      -4.33116966       5.53234088
C        6.40618739      -4.63041676       5.32383095
C        5.60072539      -3.87179580       4.34941065
O        6.15396438      -2.96299419       3.73259929
H        0.47998337      -1.65941778       3.50277669
H        1.90348379      -3.05333286       4.93477593
H        4.72770213      -3.48295104       1.68781931
H        3.30132905      -2.07532294       0.27227060
H        2.11450695      -5.87726934       3.60714268
H        1.87090867      -6.10380656       6.68359403
H       -0.33013721      -5.32526111       3.87831782
H       -3.35744389      -8.21972579       4.85929138
H       -1.85333451      -9.22328790       6.55077204
H        1.46469693      -8.26368232       6.93787276
H        6.04586188      -7.16320254       7.54126729
H        8.44175631      -6.64964931       7.92145408
H        9.54326035      -4.83193689       6.63321520
H        8.24022479      -3.53419534       4.96889515
C       -2.78714334      -6.13141694       3.27355323
C       -3.51358500      -5.63894618       2.44639479
Br      -4.68817972      -4.84266262       1.10894957
C       -0.00445707       0.01189536      -1.78238275
H       -0.66409135       0.67374010      -2.43557963
H        0.65740317      -0.63156657      -2.45157240
C       -0.90989263      -0.90692880      -0.91072765
C        0.90977584       0.90977584      -0.90977584
C       -0.00465871       1.77757030       0.00794375
H       -0.66225468       2.44313916      -0.64384735
H        0.64322798       2.43503045       0.67728295
C       -1.78241447       0.00034974      -0.00472694
H       -2.45427497      -0.65498947       0.64260836
H       -2.43311707       0.67328779      -0.65473579
C       -0.91132561       0.90220522       0.91563759
C       -0.01476271      -0.02253852       1.78660255
H       -0.67934791      -0.69751639       2.42135241
H        0.63392994       0.61504881       2.47327442
C        0.01484550      -1.77751727      -0.01636693
H        0.67870853      -2.42144646      -0.68295456
H       -0.62264859      -2.45592969       0.64226336
C        1.78714474       0.01002794       0.00389507
H        2.44202412       0.67113390       0.66197326
H        2.45385902      -0.65136977      -0.64189061
C        0.91606151      -0.90478549       0.90901405
