186
Properties=species:S:1:pos:R:3 pbc="F F F"
C        1.79095609       1.79095609      -1.79095609
C        1.25525637       2.38595446      -2.93090346
C        2.06329280       3.19434268      -3.73721755
C        3.41132586       3.41284209      -3.41091114
C        3.93626065       2.78779254      -2.26958214
C        3.12756832       1.98780649      -1.45652959
N        4.24581252       4.23040274      -4.24495459
C        3.85344422       5.49437284      -4.67980483
C        2.67348865       6.12515917      -4.02162660
C        1.79722215       6.83031465      -4.75282338
C        0.66249418       7.56113810      -4.16600806
C       -0.13230723       6.96569564      -3.17411919
C       -1.23051827       7.64804859      -2.64336617
Br      -2.27164756       6.83253530      -1.29158825
C       -1.56787226       8.91878691      -3.10156428
C       -0.79630067       9.51585360      -4.09626178
C        0.31135223       8.84493138      -4.61568570
O        1.03072635       9.52596568      -5.56119669
N        4.51551086       6.20680976      -5.54179341
C        5.70780195       5.69688530      -6.05887229
C        6.41727455       6.45879767      -6.99100814
C        7.63165881       6.00202097      -7.50952595
C        8.14786957       4.77479378      -7.09777212
C        7.44902798       4.00707307      -6.16683370
C        6.23376423       4.47655426      -5.65011661
C        5.46513652       3.68313540      -4.67365991
O        5.92200849       2.59278246      -4.33476691
H        0.21788998       2.21486606      -3.20942178
H        1.63418072       3.61143733      -4.64597453
H        4.97973913       2.92631351      -1.99241984
H        3.55528439       1.52019134      -0.57344686
H        2.61076991       6.04574807      -2.94240098
H        1.91694410       6.90980926      -5.83155591
H        0.09452282       5.96507084      -2.81384806
H       -2.42299747       9.45110308      -2.69346767
H       -1.04799132      10.50817851      -4.46053822
H        1.90759815       9.11426186      -5.64439199
H        6.02123020       7.42022876      -7.30887275
H        8.17424191       6.60690489      -8.23171290
H        9.09208381       4.41616170      -7.50016692
H        7.84914787       3.04716745      -5.84699996
C       -1.79095609      -1.79095609      -1.79095609
C       -2.04253560      -1.41976003      -3.10981867
C       -2.84925933      -2.22859377      -3.91699992
C       -3.41053372      -3.41243160      -3.41211376
C       -3.16111717      -3.75743161      -2.07508655
C       -2.34650254      -2.95574662      -1.26965524
N       -4.25034145      -4.23626153      -4.23456687
C       -3.88144068      -4.62606701      -5.52011420
C       -2.46155739      -4.42841815      -5.93029888
C       -2.17534575      -4.02703389      -7.17798055
C       -0.80060715      -3.90090706      -7.68812612
C        0.19731646      -3.29890118      -6.90592287
C        1.49370636      -3.14854266      -7.40606019
Br       2.82552790      -2.35473408      -6.32326981
C        1.81353251      -3.57309694      -8.69291449
C        0.82902714      -4.15907862      -9.48576323
C       -0.46172328      -4.32705592      -8.98319011
O       -1.35083965      -4.94675508      -9.82029399
N       -4.66554959      -5.25380151      -6.34476293
C       -5.95515788      -5.58408486      -5.92431681
C       -6.80177236      -6.25298366      -6.81232434
C       -8.08880767      -6.63205139      -6.42234667
C       -8.54057444      -6.34399459      -5.13586644
C       -7.70350876      -5.67837046      -4.24105553
C       -6.41293730      -5.30620280      -4.64129501
C       -5.50827159      -4.59086428      -3.72279596
O       -5.92722641      -4.32475136      -2.59758008
H       -1.63062173      -0.49775327      -3.51380284
H       -3.06753680      -1.89471861      -4.92933717
H       -3.58870422      -4.66244237      -1.64732589
H       -2.16195859      -3.24786662      -0.23909738
H       -1.69869429      -4.69308490      -5.20713977
H       -2.97422478      -3.80215808      -7.88192641
H       -0.03011843      -2.93746910      -5.90585419
H        2.81970964      -3.45493701      -9.08634591
H        1.06679016      -4.49662166     -10.49089391
H       -2.10523010      -5.26504728      -9.29597463
H       -6.44991919      -6.48602550      -7.81438702
H       -8.73535997      -7.15467460      -7.12282513
H       -9.54190123      -6.63676469      -4.82974651
H       -8.05608908      -5.44978657      -3.23743963
C       -1.79095609       1.79095609       1.79095609
C       -3.04363961       1.33421788       2.19425680
C       -3.85001728       2.14201292       3.00282282
C       -3.41109613       3.41111624       3.41286671
C       -2.15462568       3.86024280       2.97876685
C       -1.34266053       3.05011226       2.17913161
N       -4.24313890       4.24734162       4.23068933
C       -4.86381162       3.77773920       5.38607107
C       -4.41363883       2.46800396       5.93863163
C       -5.31186433       1.61491740       6.45357846
C       -4.93921918       0.34770727       7.10271388
C       -3.97346533      -0.49155363       6.52559590
C       -3.64656023      -1.71093594       7.12527219
Br      -2.32547257      -2.81276436       6.33976778
C       -4.28526435      -2.12417179       8.29138637
C       -5.25644205      -1.30768453       8.86705719
C       -5.57251771      -0.08153292       8.28098452
O       -6.51061088       0.66870363       8.93857422
N       -5.72923064       4.45817283       6.07671055
C       -6.05311768       5.75057112       5.65987074
C       -6.98864034       6.48088733       6.39755270
C       -7.31790977       7.78964409       6.03565188
C       -6.71128923       8.38036471       4.92878152
C       -5.77513524       7.66130107       4.18649844
C       -5.44924264       6.35054495       4.56064751
C       -4.47248796       5.55990599       3.78953788
O       -3.96030654       6.08619308       2.80305823
H       -3.40812228       0.36115202       1.87290353
H       -4.84208015       1.78193138       3.26758105
H       -1.78697461       4.84295040       3.26854748
H       -0.37010502       3.41720532       1.86161225
H       -3.34535008       2.28656082       5.96700807
H       -6.37364359       1.85257219       6.43209350
H       -3.47515827      -0.20441544       5.60269889
H       -4.03594729      -3.07313969       8.75876568
H       -5.76035067      -1.61801431       9.77838905
H       -6.45115003       1.58786563       8.62723634
H       -7.45834160       6.02580602       7.26618410
H       -8.04519950       8.34692319       6.62073701
H       -6.96613629       9.39823311       4.64404304
H       -5.30323939       8.12001129       3.32006461
C        1.79095609      -1.79095609       1.79095609
C        3.17187456      -1.79242098       1.60781875
C        3.97875098      -2.59942412       2.41667793
C        3.41181244      -3.41062210       3.41264454
C        2.01715558      -3.40954185       3.56693791
C        1.20970819      -2.59574980       2.76644642
N        4.23689638      -4.25025083       4.23402264
C        5.37823843      -3.77406809       4.87531536
C        5.57550778      -2.29781016       4.94695648
C        6.80363319      -1.77898577       4.79774123
C        7.09591270      -0.34451960       4.94920803
C        6.25349560       0.61908527       4.37309727
C        6.55212178       1.97956781       4.48834252
Br       5.38853097       3.25860287       3.72254789
C        7.69787745       2.40234557       5.15694704
C        8.55074467       1.45593816       5.72100819
C        8.24636527       0.09775874       5.62336278
O        9.12224318      -0.75478808       6.24085746
N        6.22375004      -4.52708928       5.51327471
C        5.97677371      -5.89910148       5.58768435
C        6.88860004      -6.71103803       6.26744230
C        6.66416393      -8.08422360       6.39481820
C        5.52120178      -8.65802824       5.84120545
C        4.60382659      -7.85690007       5.16220809
C        4.83674896      -6.47995191       5.04373425
C        3.89217215      -5.60801000       4.32174969
O        2.89833318      -6.13084783       3.82037684
H        3.62803955      -1.18377287       0.83036541
H        5.04964074      -2.61717118       2.22478066
H        1.54268533      -4.03405002       4.32173713
H        0.13232995      -2.60670194       2.90989070
H        4.70815249      -1.69654339       5.19422308
H        7.65253121      -2.42458341       4.58119465
H        5.36403734       0.31627457       3.82567895
H        7.93499015       3.45923793       5.24582105
H        9.44679847       1.77342866       6.24735562
H        8.68842179      -1.61654285       6.36128736
H        7.77767098      -6.26553659       6.70712414
H        7.38067041      -8.70309903       6.92909025
H        5.34423749      -9.72640969       5.93776526
H        3.71273519      -8.30405344       4.72652666
C       -0.00445707       0.01189536      -1.78238275
H       -0.66409135       0.67374010      -2.43557963
H        0.65740317      -0.63156657      -2.45157240
C       -0.90989263      -0.90692880      -0.91072765
C        0.90977584       0.90977584      -0.90977584
C       -0.00465871       1.77757030       0.00794375
H       -0.66225468       2.44313916      -0.64384735
H        0.64322798       2.43503045       0.67728295
C       -1.78241447       0.00034974      -0.00472694
H       -2.45427497      -0.65498947       0.64260836
H       -2.43311707       0.67328779      -0.65473579
C       -0.91132561       0.90220522       0.91563759
C       -0.01476271      -0.02253852       1.78660255
H       -0.67934791      -0.69751639       2.42135241
H        0.63392994       0.61504881       2.47327442
C        0.01484550      -1.77751727      -0.01636693
H        0.67870853      -2.42144646      -0.68295456
H       -0.62264859      -2.45592969       0.64226336
C        1.78714474       0.01002794       0.00389507
H        2.44202412       0.67113390       0.66197326
H        2.45385902      -0.65136977      -0.64189061
C        0.91606151      -0.90478549       0.90901405
