190
Properties=species:S:1:pos:R:3 pbc="F F F"
C        1.79295702       1.79295702      -1.79295702
C        3.01309159       2.25518265      -1.30009593
C        3.81246386       3.07442793      -2.09556835
C        3.38961726       3.42425249      -3.37855492
C        2.17353397       2.94440361      -3.89097616
C        1.69650116       3.34835034      -5.27892081
N        2.69038607       3.04765821      -6.32808651
C        2.18440256       3.55850776      -7.55858158
N        1.70304186       2.78390691      -8.54012262
C        1.20622883       3.66849655      -9.42674852
N        0.78190770       3.14152267     -10.65616443
C        0.21987106       3.89137291     -11.73675800
C        1.06687049       4.89792417     -12.49558411
C        2.41925632       5.13638463     -12.22321068
C        3.08601826       6.21538568     -12.81153584
C        2.41698460       7.05296147     -13.70486385
C        1.08663176       6.79220329     -14.02238428
Br       0.16415149       7.93492742     -15.21563144
C        0.41682771       5.72105839     -13.43476021
N        1.38682334       4.95205179      -9.00798731
N        2.12381666       4.87990046      -7.76084123
C        0.95523007       6.17709101      -9.47859760
O       -0.03114408       6.40996374     -10.18570286
C        1.82397419       7.35996523      -9.09304894
C        1.36922129       2.13321448      -3.07701895
H        3.34834568       1.98351583      -0.30514242
H        4.76534074       3.44151361      -1.72747460
H        4.01034694       4.06973793      -3.99726731
H        1.47211075       4.42407935      -5.22208933
H        0.75114608       2.83516108      -5.50096440
H        3.44789911       3.69344384      -6.14284800
H        1.17716063       2.23213745     -10.82530194
H       -0.70147796       4.37763750     -11.39428561
H       -0.11396100       3.15958626     -12.48490799
H        2.92497474       4.54375021     -11.45865908
H        4.10831495       6.42773838     -12.51312592
H        2.92844968       7.91725890     -14.11455116
H       -0.63962838       5.55852707     -13.63190721
H        2.70902454       7.09946653      -8.51091799
H        1.22506482       8.07567487      -8.52568723
H        2.18092408       7.83082475     -10.01384966
H        0.41889685       1.77364957      -3.46458276
C       -1.79295702      -1.79295702      -1.79295702
C       -1.47807771      -1.94741436      -3.14287809
C       -2.29047412      -2.73739448      -3.95459154
C       -3.40993713      -3.36998599      -3.41250155
C       -3.72094023      -3.23843184      -2.04954167
C       -4.95780906      -3.90362072      -1.46234252
N       -4.99241616      -5.35731581      -1.71639883
C       -6.23257155      -5.85146059      -1.21745975
N       -6.34281292      -6.58352185      -0.10073661
C       -7.67407219      -6.69924600       0.07184429
N       -8.09354758      -7.57283123       1.08678400
C       -9.45097043      -7.84398488       1.44695333
C      -10.37082187      -8.57208915       0.48253225
C       -9.96511845      -9.04110548      -0.77262770
C      -10.90342092      -9.51492146      -1.69459740
C      -12.25800635      -9.55488523      -1.36191833
C      -12.66472903      -9.13987743      -0.09661286
Br     -14.50170609      -9.16945591       0.35645165
C      -11.73380719      -8.66236726       0.82352814
N       -8.36395767      -6.06571577      -0.91718900
N       -7.37553167      -5.54618247      -1.84284420
C       -9.70254581      -5.78983700      -1.11853586
O      -10.59313807      -5.70542176      -0.26596268
C      -10.11200819      -5.59796838      -2.56701180
C       -2.90598949      -2.42896072      -1.24450451
H       -0.60728038      -1.46105515      -3.56866840
H       -2.05861139      -2.86890779      -5.00680976
H       -4.04847525      -3.98118853      -4.04768840
H       -5.82121541      -3.38806317      -1.90900084
H       -4.99405030      -3.71172318      -0.38149808
H       -5.13869620      -5.42983547      -2.71565927
H       -7.36489020      -8.21592397       1.34621415
H       -9.92902727      -6.91138023       1.76996235
H       -9.41621060      -8.46601551       2.35169286
H       -8.92236005      -8.92954966      -1.07547432
H      -10.56969043      -9.78835092      -2.69113790
H      -12.98255943      -9.87471291      -2.10298740
H      -12.06018347      -8.27637108       1.78574865
H       -9.30266598      -5.73036617      -3.28637691
H      -10.53613011      -4.59919232      -2.69110449
H      -10.87054313      -6.34941988      -2.80563549
H       -3.15363964      -2.31133624      -0.19215330
C       -1.79295702       1.79295702       1.79295702
C       -3.17680057       1.77123384       1.62033577
C       -3.98343332       2.58760119       2.41142564
C       -3.40328054       3.41787646       3.37126768
C       -2.01290583       3.42870459       3.56730332
C       -1.37544253       4.35494649       4.59338328
N       -1.94340265       4.17834361       5.94438454
C       -1.35072370       5.15933794       6.79143026
N       -0.42963023       4.87537248       7.72206868
C       -0.04593560       6.08754169       8.16799661
N        0.80250391       6.09638769       9.28571103
C        1.33493242       7.26219049       9.92074389
C        0.41618420       8.22750239      10.64906058
C       -0.96549415       8.03942989      10.77392759
C       -1.78228278       9.05951670      11.27114031
C       -1.22395124      10.27143424      11.67942443
C        0.15530151      10.44822566      11.60829518
Br       0.91990577      12.09582404      12.13879208
C        0.97254266       9.43629248      11.10889649
N       -0.72011200       7.08925937       7.53749107
N       -1.66864553       6.45090464       6.64500817
C       -0.60329992       8.46577813       7.54184063
O        0.39504332       9.13843757       7.82112826
C       -1.86906810       9.22282466       7.18509561
C       -1.20868278       2.61500530       2.75576665
H       -3.63332116       1.12527309       0.87840968
H       -5.06212891       2.58160100       2.29059903
H       -4.03238228       4.06068278       3.98428713
H       -1.52600593       5.37719425       4.21507924
H       -0.29162264       4.17850232       4.61714660
H       -2.88840239       4.53267291       5.86311565
H        0.76978753       5.22218160       9.78220595
H        1.94439230       7.81730357       9.19753388
H        2.05174026       6.90817485      10.67409866
H       -1.42157586       7.13202882      10.37377936
H       -2.85885318       8.91730104      11.27302504
H       -1.87202215      11.07425931      12.01397828
H        2.04060984       9.60002395      10.99139179
H       -2.73603290       8.58864532       6.99473084
H       -1.68192564       9.84048655       6.30401473
H       -2.12889989       9.86412928       8.03256933
H       -0.13012021       2.63351273       2.89349624
C        1.79295702      -1.79295702       1.79295702
C        1.59460061      -1.80027127       3.17349829
C        2.40886220      -2.59049356       3.98310438
C        3.41361779      -3.37009208       3.40871481
C        3.60492919      -3.38625065       2.01773390
C        4.71907226      -4.21312937       1.39157067
N        4.65221141      -5.63632557       1.77759382
C        5.79265670      -6.28627194       1.22256326
N        5.73372003      -7.11886167       0.17448968
C        7.02786008      -7.37397805      -0.10036423
N        7.27303955      -8.36732078      -1.06076552
C        8.56206805      -8.79520864      -1.50927473
C        9.50262592      -9.52104503      -0.56329219
C        9.17817950      -9.83994089       0.76073125
C       10.15492479     -10.31896255       1.63905244
C       11.46363080     -10.51491805       1.19626107
C       11.78348285     -10.25055829      -0.13282182
Br      13.56018074     -10.49204590      -0.73751628
C       10.81454817      -9.76841093      -1.01031279
N        7.85986071      -6.72552396       0.76147777
N        7.01149283      -6.03739347       1.71567204
C        9.23022441      -6.56074463       0.81994963
O       10.04043457      -6.63435473      -0.11026679
C        9.78938507      -6.28435847       2.20324483
C        2.79044123      -2.57588135       1.21313214
H        0.81292668      -1.19915872       3.62491853
H        2.26675701      -2.60850238       5.05906955
H        4.05419303      -3.98180670       4.04135245
H        5.66189551      -3.74472567       1.71165824
H        4.66965578      -4.11925528       0.29836050
H        4.88524188      -5.63602531       2.76292376
H        6.47053286      -8.95880134      -1.19473419
H        9.08604480      -7.94309868      -1.95869833
H        8.38876907      -9.48675293      -2.34498875
H        8.18210015      -9.60493950       1.14034437
H        9.89432110     -10.47291726       2.68194091
H       12.22457883     -10.83663496       1.89904595
H       11.08078238      -9.49916296      -2.02913944
H        9.04307393      -6.27746332       2.99887181
H       10.30770750      -5.32304868       2.19567074
H       10.49952333      -7.08062114       2.44545403
H        2.94699663      -2.57314729       0.13698526
C       -0.00445707       0.01189536      -1.78238275
H       -0.66409135       0.67374010      -2.43557963
H        0.65740317      -0.63156657      -2.45157240
C       -0.90989263      -0.90692880      -0.91072765
C        0.90977584       0.90977584      -0.90977584
C       -0.00465871       1.77757030       0.00794375
H       -0.66225468       2.44313916      -0.64384735
H        0.64322798       2.43503045       0.67728295
C       -1.78241447       0.00034974      -0.00472694
H       -2.45427497      -0.65498947       0.64260836
H       -2.43311707       0.67328779      -0.65473579
C       -0.91132561       0.90220522       0.91563759
C       -0.01476271      -0.02253852       1.78660255
H       -0.67934791      -0.69751639       2.42135241
H        0.63392994       0.61504881       2.47327442
C        0.01484550      -1.77751727      -0.01636693
H        0.67870853      -2.42144646      -0.68295456
H       -0.62264859      -2.45592969       0.64226336
C        1.78714474       0.01002794       0.00389507
H        2.44202412       0.67113390       0.66197326
H        2.45385902      -0.65136977      -0.64189061
C        0.91606151      -0.90478549       0.90901405
