169
Properties=species:S:1:pos:R:3 pbc="F F F"
C        0.00000000       0.00000000       0.00000000
C        0.88305300       0.88305300      -0.88305300
C        2.10318757       1.34527862      -0.39019191
C        2.90255984       2.16452390      -1.18566433
C        2.47971324       2.51434847      -2.46865090
C        1.26362995       2.03449958      -2.98107214
C        0.78659713       2.43844632      -4.36901678
N        1.78048205       2.13775419      -5.41818249
C        1.27449854       2.64860374      -6.64867755
N        0.79313783       1.87400289      -7.63021859
C        0.29632481       2.75859253      -8.51684449
N       -0.12799632       2.23161865      -9.74626041
C       -0.69003296       2.98146889     -10.82685397
C        0.15696646       3.98802015     -11.58568008
C        1.50935229       4.22648061     -11.31330666
C        2.17611424       5.30548166     -11.90163182
C        1.50708057       6.14305745     -12.79495982
C        0.17672773       5.88229927     -13.11248025
Br      -0.74575253       7.02502339     -14.30572742
C       -0.49307631       4.81115437     -12.52485618
N        0.47691931       4.04214777      -8.09808329
N        1.21391264       3.96999643      -6.85093720
C        0.04532605       5.26718698      -8.56869357
O       -0.94104811       5.50005972      -9.27579883
C        0.91407016       6.45006121      -8.18314492
C        0.45931727       1.22331045      -2.16711493
H        2.43844166       1.07361181       0.60476161
H        3.85543672       2.53160958      -0.81757057
H        3.10044292       3.15983390      -3.08736329
H        0.56220672       3.51417532      -4.31218531
H       -0.15875795       1.92525706      -4.59106037
H        2.53799508       2.78353982      -5.23294397
H        0.26725661       1.32223343      -9.91539791
H       -1.61138198       3.46773348     -10.48438159
H       -1.02386502       2.24968223     -11.57500396
H        2.01507071       3.63384619     -10.54875505
H        3.19841093       5.51783436     -11.60322190
H        2.01854566       7.00735487     -13.20464713
H       -1.54953240       4.64862304     -12.72200319
H        1.79912052       6.18956250      -7.60101397
H        0.31516080       7.16577085      -7.61578320
H        1.27102006       6.92092072      -9.10394564
H       -0.49100717       0.86374555      -2.55467874
C       -0.88305300      -0.88305300      -0.88305300
C       -0.59069247      -1.00678581      -2.24117982
C       -1.40348763      -1.79678617      -3.05247427
C       -2.50081451      -2.46004861      -2.50184948
C       -2.78863584      -2.35937800      -1.13118783
C       -4.00188614      -3.05825048      -0.53392361
N       -4.01454498      -4.50742940      -0.81444435
C       -5.23587148      -5.03375767      -0.30215068
N       -5.31175042      -5.78813066       0.80252176
C       -6.63720032      -5.93188063       0.99731912
N       -7.02151246      -6.83164368       2.00327340
C       -8.36675520      -7.13470293       2.38316823
C       -9.29096039      -7.86205482       1.42234851
C       -8.90025986      -8.30027967       0.15139998
C       -9.84678418      -8.77455503      -0.76188850
C      -11.19394892      -8.84594606      -0.40520286
C      -11.58448709      -8.46191651       0.87489635
Br     -13.41181698      -8.53415761       1.36097632
C      -10.64544289      -7.98405269       1.78656134
N       -7.35697646      -5.29331301       0.03313911
N       -6.39573945      -4.73847890      -0.90062792
C       -8.70393518      -5.03886686      -0.13840456
O       -9.57982646      -4.98678849       0.73180452
C       -9.14386878      -4.82812998      -1.57527754
C       -1.97376991      -1.54972300      -0.32624974
H        0.26291379      -0.49649109      -2.67371456
H       -1.18896875      -1.90460080      -4.11104732
H       -3.13979180      -3.07132206      -3.13652625
H       -4.88281425      -2.55081745      -0.95493566
H       -4.02142392      -2.88693938       0.55080382
H       -4.17813161      -4.56431491      -1.81203236
H       -6.27644721      -7.46565094       2.23721021
H       -8.85572820      -6.21728920       2.73228432
H       -8.30366727      -7.77247955       3.27532564
H       -7.86557146      -8.16370065      -0.16839984
H       -9.52678586      -9.02335410      -1.76932722
H      -11.92624105      -9.16560953      -1.13869708
H      -10.96079794      -7.62195796       2.76166207
H       -8.34582749      -4.93213946      -2.31173003
H       -9.58850190      -3.83535073      -1.67286221
H       -9.89281037      -5.58912874      -1.81394732
H       -2.20381333      -1.45609012       0.73248634
C       -0.88305300       0.88305300       0.88305300
C       -2.27038288       0.80694363       0.76133159
C       -3.07790804       1.62273798       1.55210205
C       -2.49501780       2.50679911       2.46089569
C       -1.09995660       2.57309930       2.60614577
C       -0.46098379       3.55739165       3.57568479
N       -0.97481593       3.40997586       4.95162693
C       -0.38878050       4.44093318       5.74206615
N        0.57380430       4.22297311       6.64819050
C        0.92881096       5.46306613       7.03750665
N        1.81478315       5.54176873       8.12289716
C        2.32659407       6.74755513       8.69732884
C        1.39953507       7.70593807       9.42426370
C        0.03072780       7.47449679       9.60537057
C       -0.80452311       8.48279823      10.09590637
C       -0.27640089       9.72736267      10.44133428
C        1.09226199       9.94939134      10.31437789
Br       1.81493444      11.64068027      10.75925246
C        1.92759457       8.94917018       9.82135863
N        0.19738826       6.41730150       6.39723712
N       -0.75799803       5.71452261       5.56232563
C        0.26454282       7.79631318       6.34943624
O        1.24708695       8.51296517       6.56893222
C       -1.03936790       8.49546256       6.01244583
C       -0.29564632       1.75914806       1.79494826
H       -2.72885828       0.11913204       0.05930153
H       -4.15923756       1.57482578       1.47055354
H       -3.12517396       3.14900798       3.07345817
H       -0.66141108       4.55946250       3.16769377
H        0.62866604       3.41976555       3.56645997
H       -1.93424031       3.72802240       4.89221617
H        1.83093558       4.68543559       8.65038793
H        2.89007768       7.29709950       7.93371126
H        3.08150442       6.44612369       9.43620191
H       -0.40597625       6.53791968       9.25377603
H       -1.87454289       8.30334308      10.14158122
H       -0.94097174      10.51868202      10.77089391
H        2.98431967       9.14564666       9.65976684
H       -1.88899082       7.82502506       5.87568110
H       -0.90542424       9.08707623       5.10421438
H       -1.29250067       9.15748830       6.84589745
H        0.78568766       1.82015697       1.89294780
C        0.88305300      -0.88305300       0.88305300
C        0.74437700      -0.82463194       2.26964915
C        1.55943275      -1.61509003       3.07822529
C        2.50530397      -2.46046901       2.49693962
C        2.63552490      -2.54244875       1.10122802
C        3.68639405      -3.44189132       0.46577487
N        3.57740516      -4.84366875       0.91534481
C        4.66492682      -5.56468703       0.34216598
N        4.52635818      -6.43663030      -0.66562917
C        5.79574665      -6.75856480      -0.98254963
N        5.95788087      -7.80047873      -1.90847686
C        7.20751369      -8.30184384      -2.39106763
C        8.15719540      -9.02784029      -1.45436899
C        7.87731458      -9.27733650      -0.10551152
C        8.87041469      -9.76132455       0.75148847
C       10.14953881     -10.03178594       0.26377309
C       10.42235714      -9.83673916      -1.08758906
Br      12.15975690     -10.17956730      -1.75432591
C        9.43721892      -9.34993400      -1.94421868
N        6.69032749      -6.11152730      -0.18470442
N        5.91318142      -5.34848311       0.77318174
C        8.06758379      -6.00381071      -0.19018790
O        8.83311748      -6.15079455      -1.14910159
C        8.69693212      -5.69480187       1.15554230
C        1.82129342      -1.73166279       0.29678644
H        0.00848719      -0.17214544       2.72665923
H        1.46330929      -1.58238353       4.15892405
H        3.14673122      -3.07256395       3.12834494
H        4.66074555      -3.00179709       0.72602471
H        3.59373491      -3.39131026      -0.62748569
H        3.85258868      -4.81264102       1.88924917
H        5.12653793      -8.36178448      -1.98343446
H        7.74641808      -7.49249803      -2.89818302
H        6.96979910      -9.01926308      -3.18824100
H        6.90914483      -8.98401764       0.30450948
H        8.64894817      -9.86057164       1.80994738
H       10.92615899     -10.35669765       0.94769102
H        9.67011832      -9.13484720      -2.98387169
H        7.98660782      -5.62274542       1.98034374
H        9.25379745      -4.75791492       1.08500248
H        9.38329415      -6.51028267       1.40230960
H        1.93120097      -1.78024835      -0.78403221
