189
Properties=species:S:1:pos:R:3 pbc="F F F"
C        0.00000000       0.00000000       0.00000000
C        6.22568375       4.33499224       3.09260194
C        7.54703948       4.95900125       2.66604940
C        7.50304462       6.11232224       1.67982341
O        8.20227393       7.11985361       1.79006441
N        6.68895554       5.96516050       0.55052774
N        5.98103948       4.83703359       0.32586135
C        5.26249069       5.15594543      -0.74415847
N        4.25634592       4.44163532      -1.26719734
C        3.56072870       3.52456195      -0.37838927
C        2.59461605       2.59955229      -1.08496749
C        2.52874300       2.46234645      -2.47839850
C        1.63812362       1.55831238      -3.06444175
C        0.81360600       0.76601403      -2.26644904
C        0.88179770       0.88179770      -0.88179770
C        1.76010134       1.79000003      -0.29150303
N        5.55645823       6.35873203      -1.29549107
C        6.44407988       6.87614850      -0.47545340
N        7.02551486       8.09953925      -0.53267075
C        7.00207935       8.87860297      -1.75240166
C        5.76414639       9.73928003      -1.83431143
C        5.73980888      11.02788879      -1.28018566
C        4.58901671      11.81629337      -1.36646351
C        3.44612422      11.32129650      -1.99493352
C        3.45839564      10.03714861      -2.53340467
C        4.60600655       9.24984193      -2.45844347
H        6.30863410       3.91705902       4.10094667
H        5.95965311       3.49727269       2.43811263
H        5.40368299       5.05713377       3.08451098
H        8.23104197       4.19259726       2.28571292
H        8.00845816       5.37095263       3.57362836
H        3.64102612       4.98129185      -1.86690461
H        3.00027061       4.10918166       0.36341175
H        4.27779354       2.88722803       0.15570970
H        3.17986308       3.04604090      -3.12576570
H        1.59691342       1.46562671      -4.14685816
H        0.13263688       0.05913412      -2.73197027
H        1.81084270       1.86274018       0.79343687
H        7.75767011       8.33981924       0.13807961
H        7.08993818       8.24214648      -2.64235341
H        7.88624690       9.52836218      -1.77217768
H        6.61913837      11.42546513      -0.77793523
H        4.58189595      12.81604379      -0.93949765
H        2.55415324      11.93865145      -2.05427913
H        4.60549989       8.24466641      -2.87481927
C        2.27710831       9.51553449      -3.17064792
C        1.28778018       9.07868267      -3.70433915
Br      -0.31187975       8.37233022      -4.56727272
C       -3.08671649       2.70776571      -7.08912327
C       -3.59954498       2.18208804      -8.42253439
C       -4.87422912       1.35753160      -8.41884594
O       -5.76536522       1.49130030      -9.25799821
N       -4.98281138       0.34135510      -7.46213202
N       -3.98987734       0.08174561      -6.58407999
C       -4.53702432      -0.83310038      -5.79246989
N       -4.02787390      -1.29520793      -4.64209675
C       -3.08799038      -0.43634681      -3.93934274
C       -2.39207794      -1.10979858      -2.77725930
C       -2.45654854      -2.48724952      -2.52568989
C       -1.75560011      -3.05003917      -1.45523847
C       -0.96640303      -2.24771618      -0.63194986
C       -0.88179770      -0.88179770      -0.88179770
C       -1.58774462      -0.31263390      -1.94122588
N       -5.75986032      -1.27055405      -6.18026696
C       -6.04891855      -0.52390003      -7.22286320
N       -7.18948171      -0.51256847      -7.95567467
C       -8.12581208      -1.61463244      -7.89263945
C       -9.13245977      -1.42135745      -6.78392062
C      -10.32617459      -0.71789892      -7.00380982
C      -11.25186361      -0.54960094      -5.97030903
C      -10.98929936      -1.07014303      -4.70291184
C       -9.79927408      -1.75601532      -4.47365952
C       -8.87660257      -1.93486998      -5.50281941
H       -2.52730035       3.63735655      -7.23480266
H       -2.38508395       1.99987178      -6.63360099
H       -3.89688661       2.89977831      -6.37919747
H       -2.81585253       1.62181270      -8.94388648
H       -3.82426052       3.06064727      -9.04216919
H       -4.71499482      -1.73523644      -4.03899131
H       -3.62841187       0.44042163      -3.55805029
H       -2.30158645      -0.08657256      -4.62115287
H       -3.04086304      -3.14280705      -3.16799958
H       -1.81814203      -4.11973561      -1.27152065
H       -0.41746108      -2.69705093       0.19077075
H       -1.50409761       0.75583003      -2.13187844
H       -7.24531889       0.07526554      -8.78935639
H       -7.61174404      -2.57838020      -7.78431383
H       -8.66077165      -1.67722124      -8.84879388
H      -10.54206729      -0.29698559      -7.98348584
H      -12.17697879      -0.00834330      -6.15211529
H      -11.71192282      -0.93153997      -3.90362103
H       -7.94561819      -2.46532200      -5.31404538
C       -9.51637404      -2.28311662      -3.16380007
C       -9.27944525      -2.72456396      -2.06679278
Br      -8.89635144      -3.43834698      -0.29302477
C        1.38451700       8.03284590       0.81974516
C        0.65172756       9.31983087       1.17188803
C        0.12683841       9.47439819       2.58798367
O        0.21899129      10.52108873       3.22996569
N       -0.57106030       8.39329997       3.13922803
N       -0.79281487       7.25886921       2.44052763
C       -1.34899046       6.46535349       3.34825064
N       -1.59680683       5.15521086       3.21316089
C       -0.79366416       4.42359559       2.24642017
C       -1.27587535       3.01285103       1.99040944
C       -2.50311746       2.51586081       2.45050969
C       -2.90479163       1.21268392       2.14340221
C       -2.09453710       0.39383981       1.35769216
C       -0.88179770       0.88179770       0.88179770
C       -0.47030001       2.17707976       1.19422463
N       -1.61696245       7.05468930       4.53902958
C       -1.11648654       8.26392886       4.41526638
N       -1.06346611       9.24866452       5.34559423
C       -1.90359956       9.20593314       6.52355127
C       -1.23877845       8.45000352       7.64895588
C       -0.39011667       9.10096772       8.55679893
C        0.21584047       8.39074442       9.59686963
C       -0.00838882       7.02060196       9.73336345
C       -0.83729616       6.36522285       8.82642991
C       -1.45154363       7.06999234       7.79275598
H        2.11576908       8.21479390       0.02572164
H        0.68963721       7.28256820       0.42588217
H        1.90790255       7.60438753       1.67982079
H       -0.16719468       9.50292647       0.46780516
H        1.37131164      10.13877463       1.03831944
H       -1.72331432       4.67043151       4.09547674
H        0.24076562       4.37469973       2.61210642
H       -0.79235275       4.93969986       1.27725926
H       -3.16955343       3.14083749       3.04127874
H       -3.85829589       0.84091479       2.51018761
H       -2.42118549      -0.61368761       1.11624339
H        0.47606506       2.54982224       0.80638883
H       -0.70701133      10.16936680       5.08303161
H       -2.89110733       8.78067684       6.30265390
H       -2.09809637      10.23394747       6.85474292
H       -0.19665488      10.16704431       8.45883954
H        0.86695267       8.90523773      10.29915233
H        0.46958159       6.47471496      10.54195045
H       -2.09183586       6.54957620       7.08357350
C       -1.06104401       4.94842757       8.95381915
C       -1.24843284       3.76186152       9.06050764
Br      -1.55142472       1.84328457       9.23301390
C        8.13822975      -0.23944142      -0.90959712
C        9.39842771      -0.55944470      -0.11788108
C        9.61205914      -1.99450799       0.32897632
O       10.70171657      -2.56447203       0.26587453
N        8.52848888      -2.65431274       0.92078668
N        7.33990406      -2.04155658       1.11075108
C        6.57442785      -3.02981931       1.55834742
N        5.24567179      -2.99080383       1.72870296
C        4.50320019      -2.02036590       0.94011384
C        3.05219497      -1.88216285       1.34477801
C        2.51241017      -2.44994340       2.50713438
C        1.17013464      -2.24910994       2.84163318
C        0.35291086      -1.46382459       2.02933362
C        0.88179770      -0.88179770       0.88179770
C        2.21714962      -1.08777390       0.53668088
N        7.22214585      -4.19745703       1.79107845
C        8.44900076      -3.96843255       1.37824847
N        9.49321003      -4.83189666       1.33261817
C        9.47579230      -6.06211175       2.09517993
C        8.83593742      -7.18599494       1.31580548
C        9.59453094      -7.99589396       0.45745842
C        8.99111361      -9.03580989      -0.25514992
C        7.62158026      -9.26942552      -0.12865155
C        6.85984708      -8.45942353       0.70967830
C        7.45774234      -7.42674609       1.42980352
H        8.31252333       0.60976487      -1.57801201
H        7.32327072       0.06241396      -0.24204360
H        7.79882108      -1.08830575      -1.51082105
H        9.48558441       0.10004533       0.75238722
H       10.24918995      -0.33018127      -0.77358878
H        4.81215388      -3.90724690       1.76982179
H        4.54092251      -2.32071660      -0.11559858
H        4.95470694      -1.02361084       1.03099410
H        3.13265924      -3.04352703       3.17548341
H        0.76566157      -2.69864870       3.74508802
H       -0.68608177      -1.30559620       2.30422684
H        2.62079821      -0.61767003      -0.35832223
H       10.41495064      -4.49144248       1.05301662
H        8.97799238      -5.93172708       3.06471860
H       10.50935909      -6.34217157       2.33525611
H       10.66181934      -7.82110610       0.33961329
H        9.58849586      -9.66201097      -0.91306944
H        7.15912075     -10.07706730      -0.68910423
H        6.85467136      -6.79333254       2.07698167
C        5.44328539      -8.68677109       0.83323424
C        4.25691498      -8.87717467       0.93671234
Br       2.33865436      -9.18504116       1.10402767
