185
Properties=species:S:1:pos:R:3 pbc="F F F"
C        0.00000000       0.00000000       0.00000000
C        1.05545668       2.72889710       7.70556139
O        1.61440995       2.80780989       6.40096474
C        1.82381662       4.15639976       5.98198927
C        2.70831485       4.14070575       4.75936336
O        3.90199634       3.83934653       4.81884284
N        2.13244933       4.45296130       3.51507428
N        2.91705911       4.34086809       2.40009616
C        2.13771608       4.79740750       1.43314473
N        2.39846107       4.84083749       0.12038411
C        3.26506648       3.84106416      -0.47684800
C        2.44415307       2.73024692      -1.10090279
C        2.47222995       2.51014591      -2.48639045
C        1.71515776       1.48494102      -3.06003630
C        0.91528343       0.67148587      -2.25807566
C        0.88209392       0.88209392      -0.88209392
C        1.64473456       1.89544864      -0.30208929
N        0.90756042       5.19385872       1.82986588
C        0.87019274       4.91189796       3.11125356
N       -0.22360519       5.04272452       3.91181729
C       -1.37250617       5.77892831       3.38998621
C       -1.58797962       7.02303873       4.22031650
C       -1.17379349       8.27720775       3.74483171
C       -1.37971597       9.43058622       4.50585390
C       -1.98930486       9.34320495       5.75666300
C       -2.38674336       8.09944613       6.24229566
Br      -3.20221465       7.97432405       7.94380606
C       -2.19011427       6.94365802       5.48524877
H        1.70698398       3.20738540       8.44398643
H        0.94880863       1.67306716       7.96963890
H        0.06610262       3.19447299       7.71559773
H        2.36724160       4.71288026       6.75605305
H        0.86608307       4.64902887       5.86850996
H        1.60415091       5.08522298      -0.45923102
H        3.98694152       3.41108966       0.22868869
H        3.86146696       4.33551812      -1.25271522
H        3.08781655       3.13451905      -3.13104973
H        1.74889179       1.32080663      -4.13438260
H        0.32661470      -0.12066932      -2.71276627
H        1.61759663       2.04343442       0.77496361
H       -0.52955456       4.19149999       4.37826207
H       -2.26589310       5.14529698       3.45621236
H       -1.28145594       6.04969424       2.33081002
H       -0.68840303       8.36104941       2.77337289
H       -1.06344703      10.39761731       4.12233106
H       -2.14674248      10.24539722       6.34199360
H       -2.50619947       5.97957255       5.87437530
C        7.75028669      -1.39556095      -2.43351813
O        6.43093804      -1.91425559      -2.53793754
C        6.04912271      -2.15503914      -3.89231067
C        4.79768034      -2.99841219      -3.88892540
O        4.80732791      -4.18262611      -3.54720183
N        3.58416349      -2.39329603      -4.26120381
N        2.44047359      -3.13714908      -4.16115555
C        1.51548846      -2.34260254      -4.67486477
N        0.19682656      -2.56195959      -4.75378142
C       -0.46120636      -3.37476052      -3.74701176
C       -1.09308842      -2.49728742      -2.68492694
C       -2.48514582      -2.47304134      -2.51057916
C       -3.06603737      -1.66384292      -1.53025479
C       -2.26451928      -0.86358118      -0.71674450
C       -0.88209392      -0.88209392      -0.88209392
C       -0.29542128      -1.69666380      -1.85018741
N        1.96585045      -1.13993039      -5.09747331
C        3.23795557      -1.13469807      -4.77409465
N        4.07854044      -0.07242751      -4.91341496
C        3.61964123       1.06747348      -5.70355063
C        4.49662247       1.21410642      -6.92547151
C        4.04843653       0.77376193      -8.18078101
C        4.85292349       0.91614145      -9.31408130
C        6.11996521       1.48744419      -9.20464649
C        6.57806431       1.91038145      -7.95885288
Br       8.30099223       2.67399560      -7.80329116
C        5.77778160       1.77723709      -6.82331367
H        8.48159025      -2.08635231      -2.86562088
H        7.98342058      -1.26221211      -1.37344536
H        7.80855675      -0.42320843      -2.93032621
H        6.82217700      -2.74161448      -4.40463132
H        5.98382899      -1.21117487      -4.41925611
H       -0.34762000      -1.75791088      -5.04307403
H        0.20543515      -4.10431665      -3.27046099
H       -1.24018351      -3.96192675      -4.24759005
H       -3.12948862      -3.08797981      -3.13591689
H       -4.14566689      -1.65721032      -1.40120381
H       -2.72467227      -0.23426850       0.04022911
H        0.78616735      -1.70943199      -1.96280281
H        4.52713289       0.24658937      -4.05740562
H        3.69518816       1.97897316      -5.09735285
H        2.56734423       1.00178802      -6.00656053
H        3.06448812       0.31758464      -8.28134625
H        4.49057146       0.58024751     -10.28265819
H        6.73918361       1.59550408     -10.09134884
H        6.14582058       2.11266711      -5.85748547
C       -3.25816582       0.38203826      -7.56141170
O       -3.54276201       0.67928894      -6.20079586
C       -4.00295226       2.01905652      -6.02378167
C       -4.58739224       2.13997046      -4.63770546
O       -5.64979109       1.59846571      -4.32575677
N       -3.87193412       2.87172294      -3.67332072
N       -4.35895306       2.89404858      -2.39517060
C       -3.54445408       3.73191932      -1.77439455
N       -3.53648684       4.05805990      -0.47563229
C       -3.97725922       3.09177783       0.51394159
C       -2.78947222       2.36879739       1.11703318
C       -2.47912356       2.51170143       2.47794131
C       -1.38388940       1.84373143       3.03251425
C       -0.58094200       1.03048750       2.23341546
C       -0.88209392       0.88209392       0.88209392
C       -1.98082625       1.53610381       0.32534243
N       -2.56433582       4.25325057      -2.54603314
C       -2.71564276       3.66461200      -3.70941761
N       -1.87769440       3.80344098      -4.77383335
C       -0.87600025       4.86576549      -4.72532981
C       -1.16051857       5.87123515      -5.81701110
C       -1.77847806       7.09490651      -5.51480202
C       -2.03465251       8.03054726      -6.52018342
C       -1.68915141       7.74937878      -7.84129310
C       -1.09174860       6.52954511      -8.15088659
Br      -0.63315501       6.13836840      -9.94322008
C       -0.82697665       5.59248413      -7.15116580
H       -4.14629933       0.51235087      -8.18826725
H       -2.93908561      -0.66201797      -7.62483073
H       -2.44516061       1.01949499      -7.91967771
H       -4.81621858       2.23575844      -6.72790821
H       -3.20180502       2.70746754      -6.26267056
H       -2.73159130       4.59880913      -0.18179551
H       -4.69141759       2.35790814       0.12001676
H       -4.51112371       3.63803408       1.30054252
H       -3.09109102       3.14307248       3.11922183
H       -1.15622233       1.95830167       4.08955702
H        0.27112929       0.51805340       2.67178754
H       -2.21111762       1.40424385      -0.72929402
H       -1.46387952       2.94095067      -5.12114683
H        0.11784328       4.43069684      -4.88966204
H       -0.81748311       5.37578113      -3.75583595
H       -2.06221436       7.32595975      -4.48890062
H       -2.50479381       8.97903709      -6.27199168
H       -1.89096011       8.48307864      -8.61737761
H       -0.35890047       4.64529836      -7.40520104
C       -7.47629063      -3.46903721       0.08604580
O       -6.11680970      -3.72512938       0.41293541
C       -5.96317137      -4.21714837       1.74425011
C       -4.56525875      -4.76732121       1.88759478
O       -4.20974766      -5.80564942       1.32659827
N       -3.64092197      -4.04669526       2.66456306
N       -2.35089638      -4.49969657       2.70903085
C       -1.77548865      -3.69224056       3.58522694
N       -0.48665142      -3.65844020       3.94712568
C        0.54024585      -4.04572736       2.99700544
C        1.12954984      -2.82272634       2.32302660
C        2.47706864      -2.48005290       2.51164477
C        3.01896496      -1.35235304       1.88881709
C        2.22013942      -0.54901873       1.07568681
C        0.88209392      -0.88209392       0.88209392
C        0.33849137      -2.01296313       1.49081799
N       -2.58754169      -2.74790251       4.11119244
C       -3.73011299      -2.91407375       3.48687639
N       -4.82055287      -2.10911174       3.61874317
C       -4.82817102      -1.13612856       4.70847838
C       -5.93816656      -1.47741355       5.67549563
C       -5.65196576      -2.12052924       6.89001906
C       -6.67463379      -2.42925320       7.79039695
C       -7.99674716      -2.11168494       7.48229931
C       -8.28986341      -1.48941448       6.27085605
Br     -10.08301850      -1.06844176       5.84288008
C       -7.27305061      -1.17221203       5.36913355
H       -8.08170561      -4.37691332       0.17517523
H       -7.52045898      -3.12312588      -0.95043000
H       -7.87378597      -2.68380403       0.73495982
H       -6.65017953      -5.05466496       1.91958338
H       -6.24241743      -3.44196736       2.44705206
H       -0.22970953      -2.86116038       4.51715406
H        0.18596815      -4.74969971       2.23367464
H        1.32632763      -4.57315633       3.55021635
H        3.11780718      -3.09176899       3.14380915
H        4.06588099      -1.09966728       2.03853275
H        2.64845024       0.32829663       0.59855804
H       -0.70548420      -2.26773033       1.32382132
H       -5.15588461      -1.68115102       2.75841695
H       -5.00809972      -0.13543858       4.29585266
H       -3.87468205      -1.06571120       5.24639912
H       -4.62520044      -2.38291330       7.14156063
H       -6.43910452      -2.91852617       8.73241757
H       -8.78637093      -2.35437071       8.18866136
H       -7.51439713      -0.68519527       4.42819964
