94
Properties=species:S:1:pos:R:3 pbc="F F F"
O        2.48645605       5.36620572      -2.34800977
C        2.68633513       4.22587519      -1.94941039
O        3.98845611       3.75344485      -1.83329985
C        4.27757116       2.38878213      -1.66676214
C        5.62969923       2.06583336      -1.54512179
C        6.01126455       0.72983181      -1.48906193
C        5.04284581      -0.26643980      -1.58023205
C        3.69133546       0.07317941      -1.70301290
C        3.28065940       1.41636275      -1.70765669
C        1.84623195       1.84623195      -1.84623195
H        1.51361757       1.66336735      -2.87437513
C        1.63253839       3.28635679      -1.40944088
H        1.60875429       3.41325482      -0.32131559
Br      -0.12276320       3.91950475      -2.05270014
H        6.38192280       2.84984153      -1.51547973
H        7.06146495       0.46448305      -1.39805902
H        5.33856536      -1.31326094      -1.56248792
H        2.96882754      -0.73608364      -1.79436268
O       -1.75589294      -5.15819767      -3.28658094
C       -2.08238013      -4.27258688      -2.50665371
O       -3.35069879      -4.28650047      -1.93800154
C       -3.88709367      -3.16877491      -1.27724686
C       -5.16384597      -3.33707537      -0.73973304
C       -5.81368963      -2.24905464      -0.16741401
C       -5.19298531      -1.00270466      -0.16094809
C       -3.91319502      -0.84960674      -0.70472601
C       -3.21841518      -1.94708561      -1.23917804
C       -1.84623195      -1.84623195      -1.84623195
H       -1.91597008      -1.32668384      -2.80870612
C       -1.16676058      -3.20110426      -1.96047122
H       -0.76447261      -3.56893395      -1.00991815
Br       0.38541205      -3.06300658      -3.17184716
H       -5.65681706      -4.30467526      -0.78575174
H       -6.80992166      -2.36564678       0.25156141
H       -5.70761393      -0.14290374       0.26272533
H       -3.47333253       0.14626886      -0.70004291
O       -3.87807070       1.50831761       4.81428324
C       -2.90447182       1.81778799       4.13936090
O       -2.15641559       2.93874241       4.48004280
C       -1.22185780       3.51056176       3.60069587
C       -0.53161934       4.62127345       4.08776158
C        0.32944648       5.31500998       3.24459478
C        0.47190085       4.90779802       1.92074090
C       -0.22773951       3.79292650       1.44686176
C       -1.06092364       3.04703230       2.29672290
C       -1.84623195       1.84623195       1.84623195
H       -2.67107251       2.17597356       1.20431397
C       -2.31783469       0.99593709       3.01456428
H       -1.52835684       0.36982695       3.44514092
Br      -3.71039824      -0.26020712       2.39925056
H       -0.68022385       4.95585162       5.11116859
H        0.87036641       6.18407980       3.61029363
H        1.12479544       5.46244212       1.25014565
H       -0.10556705       3.52203736       0.39950217
O        3.59556224      -1.60697582       4.99813349
C        2.71017212      -1.93348404       4.21796455
O        2.03806612      -3.13642593       4.40070876
C        1.23081695      -3.70240880       3.39988968
C        0.60345736      -4.90333574       3.73386128
C       -0.12306552      -5.58762967       2.76559413
C       -0.19371551      -5.07896803       1.47138555
C        0.44155568      -3.87430829       1.15166380
C        1.13529451      -3.14105255       2.12833177
C        1.84623195      -1.84623195       1.84623195
H        2.74566834      -2.05119745       1.25449425
C        2.14622018      -1.06623150       3.11588438
H        1.27296343      -0.54566961       3.52469167
Br       3.46852146       0.34676701       2.72768723
H        0.69801111      -5.31310667       4.73612628
H       -0.61354219      -6.52600883       3.01154039
H       -0.73957706      -5.62351466       0.70385473
H        0.38074231      -3.52355601       0.12280826
C       -0.00445707       0.01189536      -1.78238275
H       -0.66409135       0.67374010      -2.43557963
H        0.65740317      -0.63156657      -2.45157240
C       -0.90989263      -0.90692880      -0.91072765
C        0.90977584       0.90977584      -0.90977584
C       -0.00465871       1.77757030       0.00794375
H       -0.66225468       2.44313916      -0.64384735
H        0.64322798       2.43503045       0.67728295
C       -1.78241447       0.00034974      -0.00472694
H       -2.45427497      -0.65498947       0.64260836
H       -2.43311707       0.67328779      -0.65473579
C       -0.91132561       0.90220522       0.91563759
C       -0.01476271      -0.02253852       1.78660255
H       -0.67934791      -0.69751639       2.42135241
H        0.63392994       0.61504881       2.47327442
C        0.01484550      -1.77751727      -0.01636693
H        0.67870853      -2.42144646      -0.68295456
H       -0.62264859      -2.45592969       0.64226336
C        1.78714474       0.01002794       0.00389507
H        2.44202412       0.67113390       0.66197326
H        2.45385902      -0.65136977      -0.64189061
C        0.91606151      -0.90478549       0.90901405
