193
Properties=species:S:1:pos:R:3 pbc="F F F"
C        0.00000000       0.00000000       0.00000000
C        8.43023025       9.15088852       0.28886240
C        7.69141545       9.49188278      -0.98447487
S        6.91847631       8.12717405      -1.78727990
O        6.09542204       8.64847187      -2.86486956
O        7.99148523       7.18536082      -2.07556710
N        5.82240464       7.24790639      -0.77745374
N        5.74008493       5.88338080      -0.85168339
C        4.47661992       5.65503712      -0.52822499
N        3.87970007       4.46234213      -0.65101538
C        2.43922983       4.37394879      -0.79486789
C        2.03989390       2.98427257      -1.25479730
C        2.46402033       2.49617788      -2.50425380
C        2.11979757       1.20798062      -2.92197333
C        1.32969081       0.39798489      -2.11111205
C        0.88269840       0.88269840      -0.88269840
C        1.23189465       2.16416424      -0.45246831
N        3.79338545       6.74249238      -0.09181697
C        4.63168351       7.74691627      -0.24023013
N        4.21202272       9.02340298      -0.05335463
C        4.84104243       9.98069782       0.83837118
C        4.89409180      11.34108206       0.16170541
C        5.26495540      12.47896160       0.89391145
C        5.44435444      13.70942878       0.25166969
C        5.27134151      13.81984890      -1.12854154
C        4.89207733      12.70279246      -1.86279269
C        4.69059282      11.48237373      -1.22569733
H        8.66513952      10.07031245       0.83681316
H        9.37501141       8.64762931       0.06382228
H        7.84693244       8.49974329       0.94462548
H        8.39298282       9.92000552      -1.71000347
H        6.94752689      10.25443040      -0.81174090
H        4.40503524       3.78299809      -1.18967992
H        2.05659394       5.09697578      -1.52727013
H        1.96282508       4.59989290       0.16711584
H        3.07417042       3.11715413      -3.15607684
H        2.47034648       0.83664887      -3.88333972
H        1.06674411      -0.60369872      -2.44222243
H        0.87684894       2.52499744       0.51038842
H        3.20416635       9.03871772       0.12171519
H        5.85029532       9.67137884       1.12163982
H        4.25783392      10.05805180       1.76448961
H        5.43632543      12.41820298       1.96756244
H        5.73749324      14.58533804       0.82558518
H        5.43960177      14.77140744      -1.62331052
H        4.41642466      10.62064497      -1.83549536
C        4.75128941      12.78869916      -3.29331665
C        4.63337953      12.86064603      -4.49138046
Br       4.44272923      12.97697802      -6.42854833
C       -1.31896866     -11.56283917      -4.41044855
C       -1.82775549     -10.75691074      -5.58310687
S       -2.48573080      -9.17493906      -5.17226040
O       -2.73870488      -8.45920883      -6.41084976
O       -3.57545039      -9.43537610      -4.24158666
N       -1.38928674      -8.16573354      -4.29274449
N       -1.83546025      -7.35917096      -3.28051791
C       -0.98725374      -6.34363850      -3.32898981
N       -1.14667770      -5.20589851      -2.64048136
C       -0.53006208      -3.97670646      -3.10127797
C       -1.12184493      -2.78482714      -2.37229170
C       -2.48562971      -2.46823938      -2.51058292
C       -3.04104805      -1.38660782      -1.82209565
C       -2.24083626      -0.59258768      -1.00536380
C       -0.88269840      -0.88269840      -0.88269840
C       -0.32214616      -1.96866448      -1.55771656
N        0.06026492      -6.51435024      -4.17360948
C       -0.18091202      -7.65793158      -4.77998631
N        0.59057927      -8.05742041      -5.82193920
C        1.26584586      -9.33943153      -5.90978340
C        1.13328713      -9.88358618      -7.32316939
C        1.87550296     -11.00644975      -7.71905876
C        1.66260023     -11.59285391      -8.97185985
C        0.69885179     -11.07852698      -9.84005676
C       -0.03398197      -9.95934428      -9.46433622
C        0.18965410      -9.35916694      -8.22915104
H       -0.71965521     -12.40521255      -4.77377105
H       -2.15278274     -11.97281816      -3.83321755
H       -0.69988482     -10.96671745      -3.73544798
H       -2.63458917     -11.30700142      -6.08140120
H       -1.05908520     -10.62547825      -6.32913474
H       -2.06295290      -5.09301839      -2.22174196
H       -0.67859561      -3.82385629      -4.17838795
H        0.55149487      -4.02327558      -2.92382142
H       -3.12526173      -3.07092755      -3.15121212
H       -4.10179227      -1.16435541      -1.92418738
H       -2.68017551       0.24673890      -0.47183121
H        0.73882602      -2.18231205      -1.44797192
H        1.26405331      -7.32506556      -6.06015664
H        0.86065194     -10.06289378      -5.19779251
H        2.32837449      -9.21215292      -5.66761767
H        2.61377013     -11.44880944      -7.05192666
H        2.23802615     -12.46649731      -9.26877494
H        0.52016599     -11.55592064     -10.79856508
H       -0.41960698      -8.49663271      -7.95632529
C       -1.06215260      -9.44166993     -10.32948269
C       -1.92324550      -9.00811765     -11.05404286
Br      -3.31555990      -8.30710030     -12.22559538
C       -1.53041758       4.11720944      11.64462935
C       -2.96941680       3.99984156      11.19851474
S       -3.22657896       4.14484607       9.46150523
O       -4.61306611       3.81147015       9.18422721
O       -2.70143380       5.45368007       9.09729928
N       -2.30397514       3.02424708       8.51954255
N       -1.74915689       3.40020412       7.32578811
C       -1.75243404       2.26783146       6.63961655
N       -1.47307039       2.18783728       5.33214990
C       -1.98316738       1.08609956       4.53877958
C       -1.83185154       1.38764867       3.05946356
C       -2.51253108       2.47327588       2.47864505
C       -2.35731831       2.77029770       1.12213551
C       -1.54063642       1.97640672       0.32174460
C       -0.88269840       0.88269840       0.88269840
C       -1.02287001       0.58594694       2.23971025
N       -2.10609413       1.16928488       7.35231578
C       -2.44971952       1.63358536       8.53552503
N       -3.02027186       0.81438108       9.45412740
C       -2.54104245       0.63035930      10.81196732
C       -3.72607628       0.58416416      11.76322801
C       -3.54158596       0.20659518      13.10182441
C       -4.59908763       0.28809950      14.01492641
C       -5.84870683       0.75984848      13.61117664
C       -6.04719955       1.12515651      12.28530642
C       -5.00531838       1.02472037      11.36862514
H       -1.43704042       3.77889533      12.68270306
H       -1.19730093       5.15828759      11.60322992
H       -0.85508140       3.52022008      11.02674877
H       -3.56239443       4.79471322      11.66588415
H       -3.40751051       3.07231915      11.53386853
H       -1.44343555       3.08089373       4.85338397
H       -3.04572642       0.89563141       4.73948201
H       -1.43365291       0.17080211       4.79114711
H       -3.16236408       3.09975827       3.08527904
H       -2.87577025       3.62444483       0.69011999
H       -1.42375844       2.21424076      -0.73273139
H       -0.49959717      -0.26948356       2.66134435
H       -3.18453061      -0.10917623       9.04581450
H       -1.85771873       1.42793365      11.11438197
H       -1.98353142      -0.31216899      10.88003368
H       -2.57029433      -0.13737668      13.45404832
H       -4.44623757      -0.00101710      15.05202563
H       -6.65607233       0.84649861      14.33174879
H       -5.18892830       1.34219116      10.34144553
C       -7.31740048       1.65465336      11.86125138
C       -8.38119376       2.09810698      11.50610529
Br     -10.10125752       2.81513397      10.93186409
C        7.76333643       0.19645900       9.72537895
C        8.39737771      -0.88665824       8.88373716
S        7.29349365      -1.73531829       7.80411833
O        8.08452693      -2.58926340       6.93497314
O        6.27213802      -2.31379622       8.66647892
N        6.42306924      -0.69422692       6.73046860
N        5.11112733      -0.93883042       6.42519137
C        5.00811604      -0.45458202       5.19718398
N        3.94164668      -0.64243219       4.40897871
C        4.07305117      -0.56848906       2.96650628
C        2.84015951      -1.14391419       2.29489007
C        2.50180707      -2.49901815       2.46362679
C        1.35407101      -3.02807078       1.86760972
C        0.54124340      -2.22035765       1.07718669
C        0.88269840      -0.88269840       0.88269840
C        2.02120731      -0.34310282       1.48421707
N        6.09580470       0.22720137       4.75909147
C        6.98806212       0.08626471       5.71703250
N        8.26419808       0.50810621       5.53268848
C        8.97506588       1.41117272       6.41947591
C       10.40506806       0.92529463       6.59369501
C       11.35267200       1.73741258       7.23474613
C       12.63304809       1.24771988       7.51678532
C       12.98166988      -0.06021475       7.17784732
C       12.05589547      -0.87018920       6.53157781
C       10.78915190      -0.38069389       6.22881809
H        8.54466432       0.82012037      10.17409486
H        7.17840268      -0.24053518      10.53988059
H        7.10226878       0.84144646       9.14122793
H        8.83523164      -1.64872640       9.53903376
H        9.21694858      -0.49729463       8.29945498
H        3.29066230      -1.34408508       4.74296587
H        4.94741177      -1.12672452       2.60670355
H        4.20728396       0.47810332       2.66642149
H        3.12910403      -3.14846536       3.06983200
H        1.09458111      -4.07396286       2.02179110
H       -0.35086793      -2.63864376       0.61749199
H        2.27080253       0.70353168       1.32418711
H        8.38823598       0.84000891       4.57294181
H        8.49112997       1.48754828       7.39645266
H        8.98406671       2.41934643       5.98667583
H       11.10108520       2.75245957       7.53834034
H       13.35983245       1.88172037       8.01913402
H       13.96752435      -0.44169961       7.42509577
H       10.07931334      -1.05085748       5.74239417
C       12.38408665      -2.23573241       6.21348616
C       12.65894677      -3.37937484       5.94708441
Br      13.10337233      -5.22854794       5.51633531
