170
Properties=species:S:1:pos:R:3 pbc="F F F"
C        1.79335902       1.79335902      -1.79335902
C        2.24980259       1.30311174      -3.01691678
C        3.06810971       2.09953140      -3.81630895
C        3.42669094       3.37777733      -3.38721559
C        2.96277470       3.88252947      -2.16199255
C        3.42640664       5.24336304      -1.66189117
N        3.33321664       6.26770877      -2.68819029
C        3.86071706       7.50147084      -2.24945808
N        3.15222546       8.69182618      -2.47763166
N        3.83528028       9.64203361      -1.59304796
C        4.86674534       8.93770987      -1.11035713
N        5.74219047       9.53570594      -0.16209007
C        5.93661469       8.68112288       0.99585387
C        6.90176105       9.29784787       1.99355453
C        8.27246754       9.00987612       1.90956054
C        9.17018252       9.54336431       2.83401918
C        8.70620594      10.38423133       3.84494448
C        7.34725252      10.69572201       3.91664281
Br       6.72803141      11.84938939       5.28355651
C        6.44513079      10.16294545       2.99713007
N        4.92024358       7.64692057      -1.45872109
C        2.14539333       3.07185295      -1.36131417
H        1.98089011       0.30743477      -3.35180547
H        3.43771416       1.73333855      -4.76868446
H        4.07841064       4.00318390      -3.99927994
H        4.45494981       5.09692716      -1.30689780
H        2.81339179       5.53392683      -0.79782935
H        2.38775996       6.45008740      -2.98379424
H        2.17241303       8.64647867      -2.24856813
H        5.30517438      10.41523718       0.07742088
H        6.34119746       7.69792547       0.72014387
H        4.98328465       8.49088731       1.50826695
H        8.62507603       8.36788161       1.10310145
H       10.22565583       9.30452685       2.75469533
H        9.40830651      10.79739772       4.56117615
H        5.38690730      10.40815183       3.03829778
H        1.80150628       3.44872318      -0.40157520
C       -1.79335902      -1.79335902      -1.79335902
C       -1.38342715      -3.09231873      -2.09408523
C       -2.17823862      -3.89375576      -2.91195568
C       -3.37444766      -3.39176240      -3.42547380
C       -3.79925260      -2.08919263      -3.11885149
C       -5.06158889      -1.51957881      -3.75049315
N       -6.18257981      -2.44020595      -3.66632994
C       -7.31917940      -1.94846293      -4.34400364
N       -8.58246626      -2.00502967      -3.73418736
N       -9.38226521      -1.11028557      -4.57781108
C       -8.54907019      -0.78987889      -5.57586326
N       -8.97692878       0.11943404      -6.58249175
C       -8.00311942       1.17570487      -6.79446916
C       -8.43713658       2.12718056      -7.89609837
C       -8.04116240       1.88942970      -9.22105043
C       -8.40537259       2.76745663     -10.24161168
C       -9.18379247       3.88650955      -9.94820987
C       -9.60324007       4.11298478      -8.63607642
Br     -10.67163005       5.62677380      -8.24900804
C       -9.23964842       3.24034112      -7.61163887
N       -7.29721974      -1.25184930      -5.47681620
C       -2.99010008      -1.28779808      -2.30066229
H       -0.45081576      -3.48497013      -1.70434445
H       -1.87319742      -4.90484669      -3.16169306
H       -3.99632159      -4.00642427      -4.07812863
H       -4.79401646      -1.27738832      -4.78736999
H       -5.32098288      -0.57958994      -3.24457514
H       -6.47301271      -2.62824859      -2.72038031
H       -8.60040825      -1.68913009      -2.77792149
H       -9.86429996       0.47420840      -6.25289912
H       -7.01915694       0.77914770      -7.07896982
H       -7.84829079       1.75761272      -5.87522694
H       -7.45026045       1.00085549      -9.44045124
H       -8.08489634       2.56838183     -11.25897283
H       -9.46524199       4.56613133     -10.74541743
H       -9.57028599       3.40238348      -6.58885885
H       -3.30281483      -0.27091407      -2.07807576
C       -1.79335902       1.79335902       1.79335902
C       -1.47520373       3.14214923       1.95247816
C       -2.26874768       3.94554496       2.76965743
C       -3.37187355       3.39607814       3.42373218
C       -3.70495529       2.04200129       3.26034014
C       -4.85842115       1.43037174       4.04286796
N       -6.05834556       2.24760796       3.98316218
C       -7.09004587       1.72735977       4.79424034
N       -8.39816360       1.62950017       4.29401952
N       -9.04711026       0.75043088       5.27282072
C       -8.11209029       0.58566942       6.21705262
N       -8.37740106      -0.26395481       7.32654022
C       -7.30161373      -1.21653864       7.53680862
C       -7.56177809      -2.10026209       8.74453839
C       -7.08331550      -1.71730564      10.00677327
C       -7.28702999      -2.52956250      11.12206015
C       -7.98615150      -3.72853044      10.98787172
C       -8.48787875      -4.10105235       9.73950531
Br      -9.44810501      -5.72332152       9.56908080
C       -8.28462029      -3.29452758       8.62085347
N       -6.91709407       1.13588241       5.97290877
C       -2.89719987       1.23976665       2.44159393
H       -0.61442577       3.57272714       1.45297743
H       -2.03379388       4.99566178       2.91028151
H       -3.99065932       4.01346704       4.07674813
H       -4.48876077       1.30143145       5.06858255
H       -5.07471247       0.43223272       3.63820277
H       -6.43872802       2.32885828       3.05405531
H       -8.46496766       1.23122604       3.37126614
H       -9.25406222      -0.71585313       7.10478159
H       -6.33627601      -0.71934820       7.70205125
H       -7.17076598      -1.86192568       6.65706470
H       -6.55627447      -0.76863015      10.10221188
H       -6.90476659      -2.21779409      12.08851484
H       -8.14279487      -4.35657590      11.85830912
H       -8.68062726      -3.57080646       7.64694055
H       -3.13709895       0.18564467       2.32906104
C        1.79335902      -1.79335902       1.79335902
C        1.70244042      -1.68621648       3.18117421
C        2.51763089      -2.47803172       3.98828745
C        3.41899843      -3.36851421       3.40417123
C        3.50900534      -3.48994197       2.00834941
C        4.55299229      -4.40075029       1.37791826
N        4.57892606      -5.71665296       1.99353668
C        5.61729956      -6.51991189       1.47443453
N        5.36248790      -7.85103351       1.10816189
N        6.55164707      -8.19684763       0.32186716
C        7.33961592      -7.12218953       0.45300688
N        8.58777621      -7.08003585      -0.22782558
C        8.74885415      -5.84102326      -0.96799371
C       10.09685743      -5.77409175      -1.66489480
C       11.19319817      -5.19107109      -1.01148612
C       12.43135438      -5.09426418      -1.64609091
C       12.58899148      -5.59455315      -2.93805184
C       11.50858422      -6.20003251      -3.58228501
Br      11.73513372      -6.88928431      -5.33055374
C       10.26804156      -6.29680509      -2.95390048
N        6.82261747      -6.08361051       1.11965727
C        2.68973970      -2.68468272       1.20413803
H        1.00944719      -0.99011616       3.64056699
H        2.46530994      -2.40465811       5.06976911
H        4.07137363      -3.98217216       4.02732868
H        5.51003125      -3.87192198       1.47682153
H        4.33719761      -4.50237633       0.30557403
H        3.72473712      -6.23413926       1.86276523
H        4.53052211      -7.98140213       0.55553559
H        8.58292795      -7.89117454      -0.83111181
H        8.67724359      -4.95905258      -0.31731711
H        7.96106025      -5.73104755      -1.72620280
H       11.06237339      -4.82224839       0.00523442
H       13.26547009      -4.63544228      -1.12542503
H       13.55408831      -5.51769558      -3.42725581
H        9.42387922      -6.77604462      -3.44316249
H        2.77086316      -2.75819311       0.12274838
C       -0.00445707       0.01189536      -1.78238275
H       -0.66409135       0.67374010      -2.43557963
H        0.65740317      -0.63156657      -2.45157240
C       -0.90989263      -0.90692880      -0.91072765
C        0.90977584       0.90977584      -0.90977584
C       -0.00465871       1.77757030       0.00794375
H       -0.66225468       2.44313916      -0.64384735
H        0.64322798       2.43503045       0.67728295
C       -1.78241447       0.00034974      -0.00472694
H       -2.45427497      -0.65498947       0.64260836
H       -2.43311707       0.67328779      -0.65473579
C       -0.91132561       0.90220522       0.91563759
C       -0.01476271      -0.02253852       1.78660255
H       -0.67934791      -0.69751639       2.42135241
H        0.63392994       0.61504881       2.47327442
C        0.01484550      -1.77751727      -0.01636693
H        0.67870853      -2.42144646      -0.68295456
H       -0.62264859      -2.45592969       0.64226336
C        1.78714474       0.01002794       0.00389507
H        2.44202412       0.67113390       0.66197326
H        2.45385902      -0.65136977      -0.64189061
C        0.91606151      -0.90478549       0.90901405
