157
Properties=species:S:1:pos:R:3 pbc="F F F"
C        0.00000000       0.00000000       0.00000000
C        0.88345499       0.88345499      -0.88345499
C        1.33989857       0.39320772      -2.10701275
C        2.15820569       1.18962738      -2.90640492
C        2.51678691       2.46787331      -2.47731157
C        2.05287067       2.97262544      -1.25208853
C        2.51650261       4.33345902      -0.75198715
N        2.42331262       5.35780474      -1.77828626
C        2.95081303       6.59156681      -1.33955406
N        2.24232143       7.78192216      -1.56772763
N        2.92537625       8.73212959      -0.68314394
C        3.95684132       8.02780585      -0.20045310
N        4.83228645       8.62580191       0.74781396
C        5.02671067       7.77121886       1.90575790
C        5.99185703       8.38794385       2.90345856
C        7.36256352       8.09997210       2.81946456
C        8.26027850       8.63346028       3.74392321
C        7.79630191       9.47432730       4.75484850
C        6.43734849       9.78581798       4.82654683
C        5.53522677       9.25304142       3.90703409
N        4.01033956       6.73701655      -0.54881707
C        1.23548930       2.16194893      -0.45141015
H        1.07098608      -0.60246926      -2.44190145
H        2.52781013       0.82343453      -3.85878043
H        3.16850662       3.09327988      -3.08937591
H        3.54504578       4.18702313      -0.39699378
H        1.90348776       4.62402281       0.11207468
H        1.47785594       5.54018338      -2.07389022
H        1.26250901       7.73657464      -1.33866411
H        4.39527035       9.50533316       0.98732490
H        5.43129343       6.78802145       1.63004790
H        4.07338062       7.58098329       2.41817098
H        7.71517201       7.45797759       2.01300547
H        9.31575180       8.39462283       3.66459936
H        8.49840249       9.88749370       5.47108017
H        4.47700328       9.49824781       3.94820180
H        0.89160226       2.53881915       0.50832883
C        5.96626839      10.66348469       5.86644331
C        5.57173880      11.39853056       6.73735661
Br       4.93381783      12.58703756       8.14554976
C       -0.88345499      -0.88345499      -0.88345499
C       -1.05291263      -0.55797218      -2.22923423
C       -1.87015220      -1.35160214      -3.03248364
C       -2.51397655      -2.46214227      -2.48585297
C       -2.34012116      -2.80255706      -1.13490642
C       -3.11169660      -3.96461716      -0.52563502
N       -3.04966148      -5.15907841      -1.35066373
C       -3.85110578      -6.19899077      -0.83183735
N       -3.34221894      -7.50455468      -0.74519760
N       -4.31151385      -8.16498574       0.13584981
C       -5.26045931      -7.23688555       0.31224460
N       -6.36298738      -7.51432560       1.16703858
C       -6.57397191      -6.44576784       2.12756812
C       -7.77455830      -6.71888261       3.01709859
C       -9.04207843      -6.24591607       2.64492344
C      -10.15101807      -6.46156749       3.46276999
C      -10.00506870      -7.16723171       4.65651969
C       -8.75133768      -7.66348375       5.01820179
C       -7.63899478      -7.44830282       4.20606350
N       -5.02712204      -6.03702091      -0.23203022
C       -1.52140968      -1.99469926      -0.33273943
H       -0.56142129       0.30853485      -2.65753183
H       -2.01874608      -1.11104693      -4.08023209
H       -3.16698250      -3.08114934      -3.10303057
H       -4.13885326      -3.60213994      -0.38806950
H       -2.69950992      -4.18454917       0.46862320
H       -2.11874633      -5.53317200      -1.44001120
H       -2.41661397      -7.56808227      -0.35305151
H       -6.13301650      -8.39236565       1.61210354
H       -6.74825791      -5.47842383       1.63741476
H       -5.69105987      -6.31344429       2.76831122
H       -9.14666185      -5.71363046       1.70014818
H      -11.12173306      -6.08339832       3.15935611
H      -10.87060340      -7.33315511       5.28894249
H       -6.66095748      -7.83994957       4.47385777
H       -1.40085050      -2.24039883       0.71915675
C       -8.60951157      -8.40077473       6.24697653
C       -8.49073221      -9.01825592       7.27607538
Br      -8.29867603     -10.01667078       8.94004119
C       -0.88345499       0.88345499       0.88345499
C       -1.07297610       0.54404021       2.22310273
C       -1.89032818       1.33784010       3.02606972
C       -2.51425476       2.46248449       2.48523253
C       -2.32009654       2.81683763       1.14065047
C       -3.07038794       3.99527937       0.53628147
N       -3.00408233       5.17900076       1.37632054
C       -3.78678199       6.23459545       0.86055647
N       -3.26138289       7.53487266       0.79571567
N       -4.21206260       8.21737455      -0.08878736
C       -5.16979496       7.30293967      -0.28763437
N       -6.25856415       7.60379807      -1.15208782
C       -6.47066660       6.54936958      -2.12786456
C       -7.65711304       6.84749819      -3.02826892
C       -8.93456535       6.38543949      -2.67693378
C      -10.03092583       6.62415556      -3.50526582
C       -9.86221549       7.34217067      -4.68860545
C       -8.59839956       7.82755273      -5.02933265
C       -7.49856193       7.58933405      -4.20666188
N       -4.95733151       6.09395695       0.24488472
C       -1.50145518       2.00878134       0.33861186
H       -0.59703008      -0.33336223       2.64675042
H       -2.05438702       1.08663714       4.06900093
H       -3.16723381       3.08192293       3.10200567
H       -4.10005489       3.64686635       0.38214145
H       -2.64366402       4.22204971      -0.45027784
H       -2.06992389       5.54076194       1.48124371
H       -2.33043008       7.59190808       0.41540960
H       -6.01281213       8.48423969      -1.58377321
H       -6.66234800       5.57842923      -1.65151025
H       -5.58173706       6.41405558      -2.75959971
H       -9.05685224       5.84324357      -1.73995169
H      -11.00965869       6.25412343      -3.21800685
H      -10.71803181       7.52602614      -5.32924193
H       -6.51277650       7.97232959      -4.45805680
H       -1.36531579       2.26551503      -0.70873824
C       -8.43301345       8.57765667      -6.24736036
C       -8.29450259       9.20586873      -7.26745857
Br      -8.07054224      10.22163448      -8.91687110
C        0.88345499      -0.88345499       0.88345499
C        1.17264810      -0.48031908       2.18715185
C        1.99047291      -1.27502026       2.98874482
C        2.51545092      -2.46431755       2.48220332
C        2.22048705      -2.88234108       1.17475652
C        2.86448634      -4.13650948       0.60095296
N        2.78172652      -5.26425342       1.51342369
C        3.47037975      -6.39290869       1.01864546
N        2.86877001      -7.66062522       1.06257600
N        3.72379586      -8.44864783       0.16820610
C        4.71831352      -7.60660307      -0.13981632
N        5.73391466      -8.02150656      -1.04514681
C        5.94639295      -7.03915824      -2.09337956
C        7.05731597      -7.45929501      -3.04026866
C        8.37792464      -7.05603295      -2.79088654
C        9.40681611      -7.40740916      -3.66440970
C        9.12623300      -8.18018595      -4.79063824
C        7.81852553      -8.60691048      -5.02881637
C        6.78579835      -8.25614239      -4.16070665
N        4.60768002      -6.35860638       0.32988678
C        1.40224605      -2.07330194       0.37330039
H        0.77396367       0.44696644       2.58342105
H        2.23132754      -0.97516292       4.00353464
H        3.16815288      -3.08593546       3.09707407
H        3.90113287      -3.86033019       0.36759963
H        2.36667497      -4.39292753      -0.34416660
H        1.83652235      -5.56231333       1.69309387
H        1.91479529      -7.68286159       0.74009088
H        5.41273706      -8.90865163      -1.40811008
H        6.22154499      -6.05601285      -1.68829085
H        5.03005980      -6.88658037      -2.68044724
H        8.58733175      -6.46970195      -1.89688957
H       10.42061972      -7.08144960      -3.45629405
H        9.92988497      -8.45165270      -5.46672166
H        5.76639574      -8.59255019      -4.33189665
H        1.18863202      -2.38061050      -0.64714994
C        7.53732938      -9.41384312      -6.18786272
C        7.30182760     -10.08964919      -7.15856404
Br       6.92104114     -11.18237047      -8.72810598
