178
Properties=species:S:1:pos:R:3 pbc="F F F"
C        1.79335902       1.79335902      -1.79335902
C        2.24980259       1.30311174      -3.01691678
C        3.06810971       2.09953140      -3.81630895
C        3.42669094       3.37777733      -3.38721559
C        2.96277470       3.88252947      -2.16199255
C        3.42640664       5.24336304      -1.66189117
N        3.33321664       6.26770877      -2.68819029
C        3.86071706       7.50147084      -2.24945808
N        3.15222546       8.69182618      -2.47763166
N        3.83528028       9.64203361      -1.59304796
C        4.86674534       8.93770987      -1.11035713
N        5.74219047       9.53570594      -0.16209007
C        5.93661469       8.68112288       0.99585387
C        6.90176105       9.29784787       1.99355453
C        8.27246754       9.00987612       1.90956054
C        9.17018252       9.54336431       2.83401918
C        8.70620594      10.38423133       3.84494448
C        7.34725252      10.69572201       3.91664281
C        6.44513079      10.16294545       2.99713007
N        4.92024358       7.64692057      -1.45872109
C        2.14539333       3.07185295      -1.36131417
H        1.98089011       0.30743477      -3.35180547
H        3.43771416       1.73333855      -4.76868446
H        4.07841064       4.00318390      -3.99927994
H        4.45494981       5.09692716      -1.30689780
H        2.81339179       5.53392683      -0.79782935
H        2.38775996       6.45008740      -2.98379424
H        2.17241303       8.64647867      -2.24856813
H        5.30517438      10.41523718       0.07742088
H        6.34119746       7.69792547       0.72014387
H        4.98328465       8.49088731       1.50826695
H        8.62507603       8.36788161       1.10310145
H       10.22565583       9.30452685       2.75469533
H        9.40830651      10.79739772       4.56117615
H        5.38690730      10.40815183       3.03829778
H        1.80150628       3.44872318      -0.40157520
C        6.87617241      11.57338871       4.95653929
C        6.48164283      12.30843458       5.82745259
Br       5.84372186      13.49694158       7.23564574
C       -1.79335902      -1.79335902      -1.79335902
C       -1.66634668      -3.18068244      -1.72280199
C       -2.45827475      -3.98747874      -2.53819657
C       -3.36872272      -3.40348624      -3.41947491
C       -3.51011284      -2.00836450      -3.48881937
C       -4.44344813      -1.37642577      -4.51178695
N       -5.75118980      -2.00950835      -4.52841754
C       -6.57542277      -1.48748861      -5.54873459
N       -7.90775193      -1.14284020      -5.27109117
N       -8.28026868      -0.34541901      -6.44467417
C       -7.21477879      -0.45130602      -7.24872753
N       -7.19878518       0.24675008      -8.48795138
C       -5.97214084       1.00582543      -8.65556829
C       -5.93294997       1.72162655      -9.99473096
C       -5.35618938       1.09101328     -11.10760702
C       -5.28479503       1.74346022     -12.33819284
C       -5.80450247       3.03048807     -12.47147839
C       -6.40381138       3.65183571     -11.37435604
C       -6.47522250       3.00557627     -10.14129995
N       -6.16038816      -1.11063463      -6.75486246
C       -2.70464871      -1.20434116      -2.66957057
H       -0.95475996      -3.63982190      -1.04554848
H       -2.36966778      -5.06846602      -2.50160337
H       -3.98278042      -4.02612163      -4.07197243
H       -3.92642441      -1.45524545      -5.47710490
H       -4.55652725      -0.30856232      -4.28005840
H       -6.25870291      -1.89728961      -3.66564909
H       -8.03419029      -0.60327181      -4.42999773
H       -8.01781690       0.83881125      -8.46398503
H       -5.08061169       0.36631993      -8.60468730
H       -5.86164343       1.75480660      -7.85906817
H       -4.97198835       0.07774490     -10.99561274
H       -4.83042234       1.24034953     -13.18541453
H       -5.74738010       3.53361941     -13.43076739
H       -6.94945020       3.47687569      -9.28418686
H       -2.79378357      -0.12306066      -2.73496043
C       -6.94829413       4.97678257     -11.52151028
C       -7.40429843       6.08642556     -11.64475195
Br      -8.14161881       7.88062442     -11.84402331
C       -1.79335902       1.79335902       1.79335902
C       -1.50685627       3.15359103       1.90938381
C       -2.30005321       3.95760253       2.72629431
C       -3.37118035       3.39742746       3.42307605
C       -3.67256987       2.03141686       3.30330998
C       -4.78906997       1.41121223       4.13137865
N       -6.01123680       2.19553503       4.08234387
C       -7.00772764       1.67052617       4.93339217
N       -8.32521875       1.52599492       4.47046963
N       -8.92546168       0.65664551       5.48825466
C       -7.96250724       0.54085305       6.41145205
N       -8.17679589      -0.28578601       7.54897660
C       -7.07125460      -1.20458506       7.75521415
C       -7.27698156      -2.06258103       8.99165386
C       -6.77654032      -1.63436604      10.23060885
C       -6.93010960      -2.42192979      11.37134784
C       -7.60062683      -3.64155939      11.28642535
C       -8.12423594      -4.05957862      10.06167439
C       -7.97105777      -3.27784340       8.91773180
N       -6.78907323       1.11492653       6.12188548
C       -2.86524185       1.22888904       2.48442956
H       -0.67081609       3.59280995       1.37650430
H       -2.08930473       5.01674121       2.83369122
H       -3.98905103       4.01571875       4.07610470
H       -4.38994544       1.31885617       5.14997316
H       -4.98931237       0.39754157       3.75829402
H       -6.41734143       2.24250240       3.16179778
H       -8.40516577       1.10197541       3.56031865
H       -9.04665362      -0.76571272       7.36204978
H       -6.11542316      -0.67860987       7.88216577
H       -6.94607223      -1.86934625       6.88917903
H       -6.27239006      -0.67029547      10.28776161
H       -6.53151710      -2.07511237      12.31908261
H       -7.71829051      -4.25027659      12.17651417
H       -8.38451053      -3.58974433       7.96199516
H       -3.08010601       0.16636081       2.40533784
C       -8.82507123      -5.31506357       9.98301418
C       -9.41202079      -6.36653222       9.91713625
Br     -10.36106857      -8.06666810       9.81061722
C        1.79335902      -1.79335902       1.79335902
C        1.53455419      -1.87357505       3.16170187
C        2.34769249      -2.66470473       3.97155284
C        3.41427275      -3.36736482       3.41004629
C        3.67488463      -3.30031738       2.03209470
C        4.88979691      -4.00115565       1.44070830
N        5.01283815      -5.37310558       1.90317197
C        6.19612302      -5.98266057       1.43286239
N        6.15450161      -7.27684216       0.89033953
N        7.45847855      -7.38481737       0.22706593
C        8.08440341      -6.25386078       0.57654815
N        9.38560980      -5.98618332       0.06819336
C        9.47058520      -4.65328282      -0.50198433
C       10.86886352      -4.34795399      -1.01076313
C       11.80236385      -3.73306345      -0.16264418
C       13.08160995      -3.41849145      -0.62057376
C       13.44517336      -3.73040869      -1.93008926
C       12.52919009      -4.36680879      -2.76966717
C       11.24828514      -4.68082745      -2.31816642
N        7.36866127      -5.37257553       1.28464845
C        2.85570315      -2.49676148       1.22609581
H        0.71193299      -1.32334706       3.60485029
H        2.16555670      -2.73511023       5.03907023
H        4.06502516      -3.97788292       4.03796641
H        5.75504418      -3.38512986       1.71860073
H        4.81022802      -3.98982000       0.34509995
H        4.25109860      -5.96238579       1.60815722
H        5.41298688      -7.42870321       0.22576974
H        9.55113190      -6.70984413      -0.61798535
H        9.21542721      -3.87438139       0.22917046
H        8.76524736      -4.53729123      -1.33663359
H       11.51272994      -3.51288264       0.86424363
H       13.78726405      -2.93862091       0.04960238
H       14.44151019      -3.48452076      -2.28150286
H       10.53179100      -5.18592231      -2.96095194
H        3.06623372      -2.42327237       0.16229856
C       12.91456834      -4.69598154      -4.11752804
C       13.23732262      -4.97166372      -5.24636151
Br      13.75918899      -5.41741848      -7.07158977
C       -0.00445707       0.01189536      -1.78238275
H       -0.66409135       0.67374010      -2.43557963
H        0.65740317      -0.63156657      -2.45157240
C       -0.90989263      -0.90692880      -0.91072765
C        0.90977584       0.90977584      -0.90977584
C       -0.00465871       1.77757030       0.00794375
H       -0.66225468       2.44313916      -0.64384735
H        0.64322798       2.43503045       0.67728295
C       -1.78241447       0.00034974      -0.00472694
H       -2.45427497      -0.65498947       0.64260836
H       -2.43311707       0.67328779      -0.65473579
C       -0.91132561       0.90220522       0.91563759
C       -0.01476271      -0.02253852       1.78660255
H       -0.67934791      -0.69751639       2.42135241
H        0.63392994       0.61504881       2.47327442
C        0.01484550      -1.77751727      -0.01636693
H        0.67870853      -2.42144646      -0.68295456
H       -0.62264859      -2.45592969       0.64226336
C        1.78714474       0.01002794       0.00389507
H        2.44202412       0.67113390       0.66197326
H        2.45385902      -0.65136977      -0.64189061
C        0.91606151      -0.90478549       0.90901405
