121
Properties=species:S:1:pos:R:3 pbc="F F F"
C        0.00000000       0.00000000       0.00000000
C        0.88196159       0.88196159      -0.88196159
C        1.76572260       1.78410732      -0.29320532
C        2.57180416       2.59037140      -1.10005903
C        2.49459709       2.50292120      -2.49867781
C        1.60472525       1.58288511      -3.07463146
C        0.79848687       0.77639281      -2.26821021
C        3.37486304       3.36633165      -3.37030377
S        4.95628167       2.54468695      -3.73200819
C        5.70811006       3.75295403      -4.70057052
N        6.96375517       3.54723492      -5.18952948
H        7.52087982       2.71972030      -5.03475588
C        7.31625890       4.65768052      -5.91438692
C        8.47026715       4.99483134      -6.62541870
C        8.46830159       6.24590523      -7.25325890
C        7.37306191       7.10961928      -7.17390013
C        6.22858842       6.74243833      -6.45254908
C        6.20601828       5.49423534      -5.81343836
N        5.21741887       4.91417694      -5.05567922
H        1.83679822       1.86617691       0.78770383
H        3.26379559       3.28796854      -0.63107046
H        1.53694180       1.48905447      -4.15670370
H        0.11345457       0.07069530      -2.73095843
H        3.56125335       4.32268647      -2.86789898
H        2.85270838       3.59267615      -4.30743151
H        9.31988423       4.32410153      -6.68665879
H        7.39551282       8.07680283      -7.67051510
H        5.37279532       7.40558817      -6.38385044
C        9.62997096       6.65183596      -8.00115229
C       10.60286905       6.99180295      -8.62751300
Br      12.17596299       7.54150082      -9.64028529
C       -0.88196159      -0.88196159      -0.88196159
C       -2.23122573      -1.03983996      -0.57196954
C       -3.03715986      -1.84645720      -1.37861753
C       -2.49751995      -2.50336586      -2.49531030
C       -1.13829298      -2.32650655      -2.79744230
C       -0.33198353      -1.51997131      -1.99113505
C       -3.37198420      -3.36568630      -3.37382796
S       -4.12252218      -2.39471598      -4.71573866
C       -5.03679714      -3.62383130      -5.50100618
N       -5.79489217      -3.31475456      -6.59087284
H       -5.87608559      -2.39662037      -7.00265003
C       -6.41328836      -4.46608499      -7.00895300
C       -7.29365030      -4.73820713      -8.05865977
C       -7.72685382      -6.06402828      -8.17658361
C       -7.30225287      -7.06032736      -7.29400109
C       -6.41767520      -6.75583111      -6.25006952
C       -5.96961205      -5.43425920      -6.10982073
N       -5.11499457      -4.89139778      -5.18088267
H       -2.66477070      -0.54030641       0.28980581
H       -4.09169733      -1.95896725      -1.13217000
H       -0.70112770      -2.81611604      -3.66545623
H        0.71908033      -1.39563037      -2.23855825
H       -4.15910850      -3.82681703      -2.76591327
H       -2.77419041      -4.18149415      -3.79713148
H       -7.62276828      -3.96460287      -8.74327340
H       -7.65301138      -8.08352487      -7.40629451
H       -6.08207236      -7.52148147      -5.55868010
C       -8.63657360      -6.40781204      -9.23857357
C       -9.39846391      -6.69573094     -10.12799015
Br     -10.63037610      -7.16127145     -11.56610154
C       -0.88196159       0.88196159       0.88196159
C       -0.70438408       0.87468103       2.26397013
C       -1.51113766       1.68116655       3.06993037
C       -2.50257177       2.49430873       2.49931561
C       -2.66208549       2.49533533       1.10482100
C       -1.85556133       1.68907065       0.29845791
C       -3.36641527       3.37493205       3.37015114
S       -2.61530519       5.01455937       3.60311226
C       -3.79929529       5.74635318       4.61598614
N       -3.61830214       7.02240338       5.05981405
H       -2.82480077       7.60759748       4.84295774
C       -4.69750500       7.34912405       5.84169729
C       -5.03797334       8.50587008       6.54667378
C       -6.24775647       8.46982932       7.24987992
C       -7.06968874       7.34010924       7.24678334
C       -6.70051747       6.19399324       6.52906513
C       -5.49233071       6.20444649       5.81691478
N       -4.91737954       5.22006181       5.04983367
H        0.05688700       0.24978980       2.72236850
H       -1.36099310       1.67355917       4.14828231
H       -3.41605116       3.12719574       0.63945307
H       -1.99400144       1.70066290      -0.77955605
H       -3.51392922       2.89382646       4.34408312
H       -4.35686047       3.48335146       2.91260411
H       -4.39970660       9.38227732       6.54866062
H       -8.00524595       7.33646051       7.80112429
H       -7.33083037       5.31110145       6.52030210
C       -6.65388432       9.63166136       7.99741352
C       -6.99401639      10.60469570       8.62347291
Br      -7.54398119      12.17800992       9.63575798
C        0.88196159      -0.88196159       0.88196159
C        0.31657315      -1.57803035       1.94843173
C        1.12343883      -2.38418885       2.75460691
C        2.49966888      -2.49418113       2.50234609
C        3.05086534      -1.79247455       1.41890194
C        2.24441469      -0.98624149       0.61243370
C        3.36929341      -3.37524184       3.36696321
S        3.44548461      -5.07149039       2.71600182
C        4.46849097      -5.79962461       3.89351903
N        4.78417866      -7.12195574       3.79438516
H        4.46502314      -7.74409766       3.06623519
C        5.59926542      -7.43668416       4.85237676
C        6.21365009      -8.62614961       5.25071750
C        6.99045522      -8.56352680       6.41348369
C        7.14353552      -7.37739967       7.13564613
C        6.51412753      -6.19938831       6.71006000
C        5.72931735      -6.23608441       5.54829022
N        5.01976223      -5.23092284       4.93658996
H       -0.74648203      -1.50264871       2.15910461
H        0.67175354      -2.92919127       3.58188977
H        4.11321631      -1.87256249       1.19692118
H        2.68814980      -0.44821742      -0.22125892
H        2.97380306      -3.38873611       4.38929963
H        4.37992205      -2.95339425       3.41949974
H        6.09449316      -9.54631084       4.68984055
H        7.75247274      -7.35403219       8.03632583
H        6.62566725      -5.27304629       7.26352039
C        7.64898919      -9.75750320       6.87646681
C        8.20051139     -10.75745844       7.26421517
Br       9.09227614     -12.37430148       7.89117148
