142
Properties=species:S:1:pos:R:3 pbc="F F F"
C        1.79210130       1.79210130      -1.79210130
C        2.84340584       1.20560520      -2.52305359
C        3.67140142       1.98502724      -3.34467479
C        3.42257441       3.34307093      -3.41385454
C        2.37398687       3.89892459      -2.67998416
C        1.54153507       3.15986067      -1.86145808
C        2.35789955       5.33357154      -2.95773987
O        1.59076074       6.15296982      -2.50879010
C        3.52292799       5.57696948      -3.94651036
O        3.83655248       6.65366322      -4.40637409
N        4.09020944       4.32946722      -4.15965587
C        5.25377696       4.11648550      -4.98816124
C        6.54185180       4.15465405      -4.19918494
C        7.01957124       5.36802155      -3.67757759
C        8.20569363       5.41114894      -2.94221477
C        8.93170415       4.24278814      -2.71951034
C        8.46693763       3.03584461      -3.23641266
C        7.28181512       2.98510842      -3.97268835
H        3.02122080       0.13390374      -2.45524389
H        4.47261967       1.51320213      -3.90166688
H        0.73791247       3.63383757      -1.30845676
H        5.29338761       4.90165974      -5.75425217
H        5.14578279       3.16866201      -5.52765630
H        6.47011113       6.29436717      -3.84541420
H        8.56243507       6.35854128      -2.54527357
H        9.85442777       4.28526607      -2.14737421
H        6.94015492       2.03432952      -4.37356954
C        9.21649535       1.82719194      -3.01075374
C        9.84424994       0.81494533      -2.82176440
Br      10.85927603      -0.82177182      -2.51618462
C       -1.79210130      -1.79210130      -1.79210130
C       -2.58905571      -1.19499627      -2.78801265
C       -3.40902029      -1.97468459      -3.61739857
C       -3.40916235      -3.34382513      -3.42651240
C       -2.60960544      -3.91023699      -2.43305318
C       -1.79233365      -3.17097146      -1.59954870
C       -2.81724492      -5.35615417      -2.47581188
O       -2.29526876      -6.18729043      -1.76996148
C       -3.83851869      -5.59432765      -3.61356149
O       -4.27111805      -6.67540376      -3.95006798
N       -4.12383452      -4.33522501      -4.12027300
C       -5.08388641      -4.10109901      -5.17343829
C       -6.46361443      -3.79067830      -4.64139806
C       -7.23384863      -4.79640013      -4.03492162
C       -8.50723010      -4.51664964      -3.53517761
C       -9.02920372      -3.22859213      -3.63620678
C       -8.27346286      -2.22620840      -4.23952363
C       -6.99949535      -2.49859102      -4.74152552
H       -2.57301132      -0.11497425      -2.92238286
H       -4.01178979      -1.49550139      -4.38019750
H       -1.18700911      -3.65335860      -0.83983909
H       -5.14873901      -4.99898761      -5.80157291
H       -4.71888460      -3.29866089      -5.82455562
H       -6.84674202      -5.81194520      -3.95120527
H       -9.09124100      -5.30636749      -3.06864144
H      -10.02147923      -3.01961251      -3.24597631
H       -6.42887166      -1.70396811      -5.21521420
C       -8.81125490      -0.89484154      -4.34834459
C       -9.26165574       0.22017820      -4.43948213
Br      -9.98991581       2.02307082      -4.58684384
C       -1.79210130       1.79210130       1.79210130
C       -1.26357407       2.98408209       2.32440847
C       -2.04586541       3.81904076       3.13619728
C       -3.34839759       3.43550091       3.39560138
C       -3.84779048       2.24989693       2.85520820
C       -3.10382442       1.40554883       2.05348056
C       -5.23479778       2.11819980       3.29621338
O       -6.00093427       1.22180770       3.02977869
C       -5.51229202       3.36597164       4.16814417
O       -6.56086788       3.61136094       4.72436097
N       -4.32932962       4.08987552       4.16012739
C       -4.14086227       5.31293340       4.90462803
C       -3.54917839       5.07251067       6.27400173
C       -4.31598698       4.46654096       7.28264244
C       -3.77500903       4.23518274       8.54886557
C       -2.46102160       4.60779309       8.82518795
C       -1.69484254       5.21265399       7.83169837
C       -2.22910376       5.44717695       6.56333118
H       -0.23564949       3.26813283       2.10658612
H       -1.62085706       4.73387184       3.53275977
H       -3.53284787       0.49283519       1.65452375
H       -5.11323337       5.80682501       5.02924114
H       -3.52136110       6.00169709       4.31904292
H       -5.34776470       4.17293875       7.08918904
H       -4.38176459       3.76528211       9.31920323
H       -2.04811952       4.42542093       9.81352760
H       -1.61684586       5.92702430       5.80418382
C       -0.33766757       5.60178446       8.11498900
C        0.79896646       5.92768124       8.35224490
Br       2.63680757       6.45462876       8.73586763
C        1.79210130      -1.79210130       1.79210130
C        1.68033346      -3.19292737       1.69880379
C        2.47621755      -4.03304324       2.49184265
C        3.37132126      -3.44337389       3.36480473
C        3.46279437      -2.05288338       3.43721787
C        2.69335325      -1.19806618       2.67143439
C        4.48461791      -1.73285233       4.43174073
O        4.85013990      -0.63154438       4.77083638
C        4.99821457      -3.09681621       4.95137706
O        5.85142851      -3.24590235       5.79925892
N        4.27737597      -4.05185694       4.25009961
C        4.41324448      -5.47226754       4.47291168
C        3.41715225      -5.99886168       5.47967686
C        3.54606914      -5.67814783       6.84095341
C        2.62656325      -6.15552568       7.77696841
C        1.56668516      -6.96140725       7.36591022
C        1.43360125      -7.28727632       6.01831732
C        2.34921053      -6.81363148       5.07676987
H        0.96988323      -3.63671573       1.00376948
H        2.37703584      -5.10862243       2.40183041
H        2.79756054      -0.12219848       2.76044778
H        5.42480928      -5.67855961       4.84593063
H        4.32747229      -5.99896382       3.51566500
H        4.37129021      -5.05423416       7.18436813
H        2.74034597      -5.89851703       8.82738693
H        0.85632467      -7.32984906       8.10089432
H        2.23165665      -7.08543820       4.03095912
C        0.34125516      -8.12246546       5.59072041
C       -0.57358469      -8.82193637       5.23260800
Br      -2.05280335      -9.95292167       4.65357051
C       -0.00445707       0.01189536      -1.78238275
H       -0.66409135       0.67374010      -2.43557963
H        0.65740317      -0.63156657      -2.45157240
C       -0.90989263      -0.90692880      -0.91072765
C        0.90977584       0.90977584      -0.90977584
C       -0.00465871       1.77757030       0.00794375
H       -0.66225468       2.44313916      -0.64384735
H        0.64322798       2.43503045       0.67728295
C       -1.78241447       0.00034974      -0.00472694
H       -2.45427497      -0.65498947       0.64260836
H       -2.43311707       0.67328779      -0.65473579
C       -0.91132561       0.90220522       0.91563759
C       -0.01476271      -0.02253852       1.78660255
H       -0.67934791      -0.69751639       2.42135241
H        0.63392994       0.61504881       2.47327442
C        0.01484550      -1.77751727      -0.01636693
H        0.67870853      -2.42144646      -0.68295456
H       -0.62264859      -2.45592969       0.64226336
C        1.78714474       0.01002794       0.00389507
H        2.44202412       0.67113390       0.66197326
H        2.45385902      -0.65136977      -0.64189061
C        0.91606151      -0.90478549       0.90901405
