181
Properties=species:S:1:pos:R:3 pbc="F F F"
C        0.00000000       0.00000000       0.00000000
C        0.88155327       0.88155327      -0.88155327
C        1.49800295       2.00780066      -0.33743221
C        2.30997614       2.81764673      -1.13976309
C        2.50880793       2.49400262      -2.48748811
C        1.88817931       1.35467090      -3.02189131
C        1.07064071       0.55191402      -2.22148984
C        3.37529072       3.31294350      -3.38442607
O        3.87299511       2.78350856      -4.37797535
C        3.55984670       4.79148582      -3.06110938
O        4.37004138       5.41639501      -4.06205345
C        5.69847350       5.50394942      -3.77355631
O        6.20876012       5.18743109      -2.70364983
C        6.47964446       6.00193524      -4.99679944
H        5.79741349       6.62957998      -5.58426749
N        7.59875242       6.84291721      -4.56618270
C        7.49238034       8.21310932      -4.49760321
O        6.47338579       8.82194335      -4.80844600
C        8.71387481       8.96171764      -4.08412725
C        9.71051196       8.40208222      -3.27323101
C       10.86228146       9.13662850      -2.97020158
C       11.01288134      10.43115307      -3.46638814
Br      12.57924057      11.41126141      -3.06869298
C       10.01722761      11.00712339      -4.25202731
C        8.86753187      10.27379724      -4.55668297
C        6.94784968       4.81591302      -5.87216113
C        7.59172149       5.31801046      -7.16941016
C        7.91133950       3.85904509      -5.15907219
H        1.35983171       2.25871728       0.71191191
H        2.79136130       3.67472794      -0.67829556
H        2.03653123       1.08802587      -4.06751417
H        0.59371729      -0.32556649      -2.65142984
H        3.98230043       4.92524650      -2.06158912
H        2.57946857       5.27735626      -3.09426874
H        8.40268784       6.37516302      -4.17634801
H        9.60779694       7.40740923      -2.85081540
H       11.63346903       8.69127869      -2.34632005
H       10.12545090      12.01806800      -4.63662149
H        8.09507399      10.72373557      -5.17861290
H        6.06047762       4.23114801      -6.14895498
H        8.50893021       5.88377402      -6.97247400
H        6.90319598       5.96712162      -7.72009917
H        7.85354728       4.47852241      -7.82230420
H        8.83724457       4.35819589      -4.85653097
H        8.18779109       3.03097482      -5.82109314
H        7.45223155       3.41950398      -4.26862324
C       -0.88155327      -0.88155327      -0.88155327
C       -2.26956174      -0.78603779      -0.78763628
C       -3.08270317      -1.58904792      -1.59563487
C       -2.50306806      -2.48415079      -2.50307980
C       -1.10522146      -2.56665800      -2.59286207
C       -0.29467026      -1.77031919      -1.77905512
C       -3.32115687      -3.35295116      -3.39855227
O       -2.82242537      -3.76714509      -4.44490855
C       -4.72564220      -3.73893507      -2.94786463
O       -5.32540418      -4.61752776      -3.90555790
C       -6.12128169      -4.01938866      -4.83530888
O       -6.42903265      -2.83172236      -4.83908602
C       -6.53523461      -5.02912108      -5.91402345
H       -6.54758321      -6.02043688      -5.44324087
N       -7.89462391      -4.73821056      -6.37501785
C       -8.99331720      -5.37028935      -5.83948631
O       -8.91264115      -6.22669642      -4.96443757
C      -10.32045546      -5.01823760      -6.42102663
C      -10.58242572      -3.78018574      -7.02321373
C      -11.83112324      -3.53351294      -7.60447536
C      -12.81949986      -4.51680603      -7.57411667
Br     -14.49778600      -4.18418826      -8.37722069
C      -12.57910927      -5.74157605      -6.95569299
C      -11.33191778      -5.98954499      -6.37654932
C       -5.51722245      -5.04035496      -7.07834642
C       -5.84637586      -6.15461802      -8.07814823
C       -5.40641534      -3.70264012      -7.82040133
H       -2.72795414      -0.08355224      -0.09513070
H       -4.15921478      -1.47360334      -1.51156668
H       -0.63987474      -3.25545953      -3.29673700
H        0.78696071      -1.84866553      -1.85787582
H       -5.34097456      -2.85155977      -2.77660172
H       -4.64626964      -4.29596395      -2.00885998
H       -8.01244109      -3.94944777      -6.99231002
H       -9.84168343      -2.98680346      -7.03753469
H      -12.02260651      -2.57257532      -8.07588594
H      -13.34735247      -6.50992403      -6.92286390
H      -11.14419755      -6.95145753      -5.90176738
H       -4.52652737      -5.25707395      -6.65697929
H       -6.81151905      -5.98555228      -8.56810690
H       -5.88453566      -7.12782193      -7.57805919
H       -5.08239249      -6.21107829      -8.86090311
H       -6.35283195      -3.41202487      -8.28711461
H       -4.65608040      -3.76765903      -8.61611963
H       -5.09408478      -2.89753160      -7.14874239
C       -0.88155327       0.88155327       0.88155327
C       -1.22879781       0.45236529       2.16207271
C       -2.03370712       1.25771199       2.97596684
C       -2.48552488       2.49742845       2.50734532
C       -2.12421428       2.92111973       1.21940752
C       -1.32757667       2.11179489       0.40467301
C       -3.33315225       3.40241646       3.33709159
O       -3.33184314       4.60901205       3.09362382
C       -4.21237653       2.78252157       4.41754380
O       -4.98981365       3.79745099       5.06122521
C       -4.46288254       4.30107331       6.21202339
O       -3.45272143       3.88029914       6.76682047
C       -5.27907431       5.50936482       6.68994000
H       -6.30829177       5.36615569       6.33681351
N       -5.31123125       5.54280549       8.15381558
C       -6.34646956       4.98683260       8.86979071
O       -7.31414151       4.44949798       8.34013565
C       -6.28506824       5.12106972      10.35358173
C       -5.07932248       5.25044778      11.05605493
C       -5.09226405       5.43362383      12.44322367
C       -6.30607767       5.47588725      13.12845764
Br      -6.31752688       5.74203756      14.99963052
C       -7.50962207       5.32261181      12.44414442
C       -7.49785368       5.14144650      11.05871191
C       -4.72237408       6.82229451       6.09125525
C       -5.62798768       8.00779681       6.44335762
C       -3.28127314       7.13580946       6.51237419
H       -0.87080602      -0.50312974       2.53896080
H       -2.26720538       0.90207605       3.97510336
H       -2.46487217       3.88464044       0.84255865
H       -1.05933645       2.45264073      -0.59239654
H       -3.61206983       2.21965351       5.13741271
H       -4.91729628       2.09616832       3.93762896
H       -4.47560632       5.85295647       8.62563609
H       -4.11918886       5.19409416      10.55273856
H       -4.15195562       5.54043979      12.97867236
H       -8.45893902       5.34811370      12.97308768
H       -8.44095172       5.03094560      10.52552513
H       -4.72259965       6.72014188       4.99783908
H       -5.64881902       8.19355550       7.52280371
H       -6.65474190       7.82617291       6.10950197
H       -5.27530259       8.92304704       5.95602426
H       -3.18905900       7.26793894       7.59497349
H       -2.93767186       8.06255267       6.03963453
H       -2.59320627       6.34311108       6.20404142
C        0.88155327      -0.88155327       0.88155327
C        1.04597555      -2.23011659       0.56714367
C        1.85560684      -3.04225327       1.36952584
C        2.50587429      -2.49977156       2.48465281
C        2.33763489      -1.13997535       2.78713128
C        1.52181428      -0.33238049       1.98984980
C        3.39180952      -3.31526017       3.36559060
O        4.26245613      -2.74726270       4.02476019
C        3.14062455      -4.81643488       3.45538247
O        4.04766400      -5.41188011       4.38894573
C        5.17982567      -5.94518719       3.85096637
O        5.41256635      -6.03739363       2.64988106
C        6.15295169      -6.36469507       4.96073237
H        5.55030766      -6.61892458       5.84202872
N        6.88150197      -7.56938280       4.55696755
C        6.45809898      -8.82824380       4.91675009
O        5.46560264      -9.02813594       5.61003656
C        7.30742497      -9.97307487       4.47921985
C        8.12223020      -9.92352728       3.34006771
C        8.94205460     -11.01038553       3.01667142
C        8.93937173     -12.14838245       3.82266837
Br      10.06269297     -13.60573213       3.39076985
C        8.11447976     -12.21902485       4.94287369
C        7.29678816     -11.13354568       5.26767825
C        7.10753784      -5.20353069       5.32485531
C        7.97362430      -5.57034451       6.53517330
C        8.00831254      -4.75303630       4.16810795
H        0.55539330      -2.65635300      -0.30510922
H        1.97830930      -4.08262644       1.08344905
H        2.84009643      -0.70290544       3.64906940
H        1.39859220       0.71866278       2.23965122
H        3.21215775      -5.28625439       2.47072392
H        2.13031913      -4.97490284       3.84587160
H        7.61952931      -7.45551197       3.87915760
H        8.12437203      -9.06206545       2.67958410
H        9.57632290     -10.95979880       2.13494607
H        8.10280724     -13.10563494       5.57169822
H        6.65974896     -11.18846386       6.14920963
H        6.49274290      -4.33901654       5.60882116
H        8.64370742      -6.40814817       6.31332263
H        7.34961964      -5.85087820       7.38991894
H        8.59428894      -4.72074401       6.83934094
H        8.67046053      -5.55487258       3.82663831
H        8.64271065      -3.91629896       4.48084944
H        7.41895243      -4.40796626       3.31344008
