157
Properties=species:S:1:pos:R:3 pbc="F F F"
C        0.00000000       0.00000000       0.00000000
C        3.36846288       4.62631251      -3.14571565
O        3.32285910       3.21593958      -3.32642465
C        2.49337326       2.49767170      -2.50539396
C        1.63789385       3.06896778      -1.55450313
C        0.82967403       2.26306533      -0.74815735
C        0.88110417       0.88110417      -0.88110417
C        1.73001388       0.29794480      -1.81765665
C        2.53462379       1.09594226      -2.65835252
C        3.45490423       0.44625459      -3.68498136
H        3.60473447       1.12858887      -4.53082226
N        2.81036838      -0.76645405      -4.22204765
C        3.56378458      -1.82102711      -4.75178239
C        2.91370069      -2.96010050      -5.25266111
F        1.57214520      -2.98280711      -5.31082890
C        3.61812993      -4.07425275      -5.69521284
C        5.00668735      -4.06259946      -5.63410109
Br       5.98176255      -5.56346221      -6.24451149
C        5.68967244      -2.95324436      -5.13208411
C        4.97487415      -1.84057797      -4.66451466
C        5.64480001      -0.58234182      -4.19145063
H        5.72090793       0.08607243      -5.06252207
C        6.98356837      -0.59582207      -3.51994080
C        7.03559302       0.36567191      -2.58383178
C        5.71653227       1.08239050      -2.46064866
C        4.79294390       0.03648748      -3.07608439
H        4.59870067      -0.71998672      -2.29322358
H        4.10658098       5.02870217      -3.84621202
H        3.69595497       4.88591508      -2.13350047
H        2.40206169       5.08375782      -3.38089022
H        1.57122919       4.14314489      -1.41484549
H        0.16760883       2.72486591      -0.02004353
H        1.76665124      -0.78688135      -1.90748799
H        1.89884561      -0.63564185      -4.65394846
H        3.07203581      -4.93032940      -6.07589666
H        6.77606469      -2.95613848      -5.10850728
H        7.82123898      -1.21442085      -3.80764360
H        7.91031319       0.61514038      -1.99878715
H        5.74247577       2.02334339      -3.01862232
H        5.46001809       1.27962336      -1.41591301
C       -2.96713347      -3.61813394      -4.55522363
O       -3.34200347      -3.30388918      -3.21933069
C       -2.50445184      -2.49235299      -2.49963409
C       -1.34691306      -1.89702636      -3.01742534
C       -0.54017897      -1.08893168      -2.21178606
C       -0.88110417      -0.88110417      -0.88110417
C       -2.02528218      -1.47008645      -0.35024671
C       -2.86601036      -2.26826629      -1.15464192
C       -4.11999120      -2.90208523      -0.56406377
H       -4.86971164      -3.04177529      -1.35265869
N       -4.70965794      -1.98633031       0.43002627
C       -5.51020036      -2.46059120       1.47625170
C       -6.05286898      -1.55744101       2.40404869
F       -5.88138997      -0.23827258       2.21949557
C       -6.76877259      -1.98648587       3.51616843
C       -6.94711364      -3.34996033       3.71888499
Br      -7.92989450      -3.95130014       5.21838281
C       -6.41336877      -4.28019693       2.82505351
C       -5.67152574      -3.84446275       1.71717765
C       -5.14190718      -4.78342262       0.67142097
H       -5.90552374      -4.84520462      -0.11877407
C       -4.72079131      -6.18353145       0.99663565
C       -3.67703440      -6.53730359       0.22924128
C       -3.22441508      -5.39420325      -0.64095310
C       -3.81782135      -4.22393380       0.13623938
H       -3.13264991      -4.01896103       0.97967340
H       -3.71781494      -4.30384155      -4.95983869
H       -1.99965150      -4.13027609      -4.58544294
H       -2.96241601      -2.72127839      -5.18301533
H       -1.04193526      -2.03789510      -4.04938921
H        0.35094711      -0.63045309      -2.63301229
H       -2.27810742      -1.30543580       0.69628534
H       -4.95390279      -1.05773835       0.09448893
H       -7.17082939      -1.25106949       4.20429582
H       -6.57826851      -5.34133978       2.99117481
H       -5.23622087      -6.85055498       1.67231411
H       -3.22153361      -7.51810660       0.21539949
H       -3.63446115      -5.50003690      -1.64994341
H       -2.13363731      -5.33150720      -0.69040994
C       -3.40743830       3.11348306       4.61956968
O       -3.30471451       3.34143019       3.21907864
C       -2.50584191       2.49508241       2.49551459
C       -1.84633015       1.38212675       3.03290787
C       -1.04038676       0.57389836       2.22661159
C       -0.88110417       0.88110417       0.88110417
C       -1.52548022       1.98680556       0.33332955
C       -2.36358076       2.79980475       1.12553306
C       -3.06953990       4.00367687       0.51292343
H       -3.99857674       4.20511553       1.06045334
N       -3.45063024       3.69255243      -0.87722069
C       -3.62316891       4.70267168      -1.83130072
C       -3.98512785       4.36659308      -3.14545963
F       -4.26066554       3.08742818      -3.44792673
C       -4.06967915       5.32178258      -4.15237170
C       -3.78122137       6.64755890      -3.85059129
Br      -3.90451000       7.96239502      -5.20409319
C       -3.40667102       7.02012152      -2.55828036
C       -3.29940704       6.05012247      -1.55071867
C       -2.98503585       6.39107005      -0.12219707
H       -3.94792039       6.52877907       0.39280297
C       -2.11073787       7.54976147       0.24718777
C       -1.39275071       7.25045060       1.34189539
C       -1.63879572       5.83292829       1.78784742
C       -2.17578463       5.24046966       0.48926149
H       -1.29997552       5.02126241      -0.14930039
H       -4.04146965       3.90005896       5.03996657
H       -2.42830880       3.18184121       5.10522051
H       -3.88810102       2.15193879       4.82666991
H       -1.93954242       1.11025122       4.07942594
H       -0.54147308      -0.28914143       2.66018661
H       -1.38704537       2.22142126      -0.72120875
H       -4.04604290       2.87822078      -1.00711146
H       -4.35541232       5.01454696      -5.15235622
H       -3.20194967       8.06429295      -2.33780913
H       -2.12364821       8.51953929      -0.22872577
H       -0.73246111       7.93485586       1.85692375
H       -2.36291528       5.81351179       2.60801440
H       -0.71319549       5.34152541       2.10083356
C        3.10423793      -4.61723481       3.41901830
O        3.34208241      -3.21936640       3.30377453
C        2.49516195      -2.49543235       2.50584461
C        1.37308690      -3.02926355       1.85901432
C        0.56486134      -2.22294969       1.05308567
C        0.88110417      -0.88110417       0.88110417
C        1.99588817      -0.33695204       1.51277513
C        2.80923955      -1.12896496       2.35071406
C        4.02315814      -0.52026699       3.04271506
H        4.22755487      -1.06221664       3.97437409
N        3.72560921       0.87510315       3.41545591
C        4.74428817       1.82266727       3.57291897
C        4.42105861       3.14210264       3.92730534
F        3.14640197       3.45650739       4.21027240
C        5.38453722       4.14224632       3.99679912
C        6.70570828       3.82807058       3.70055128
Br       8.03175910       5.17231032       3.80336305
C        7.06548972       2.53010475       3.33312722
C        6.08702255       1.52925197       3.24104025
C        6.41461336       0.09578679       2.93508225
H        6.55579342      -0.41288552       3.90082349
C        7.56368162      -0.28917947       2.05482602
C        7.25049452      -1.38700435       1.34759784
C        5.83154251      -1.82013467       1.60789424
C        5.25317679      -0.51295968       2.13937931
H        5.03211799       0.12056013       1.26037968
H        3.89243732      -5.03881891       4.05023895
H        3.16134141      -5.11086541       2.44316371
H        2.14486893      -4.81324574       3.90859505
H        1.09394823      -4.07291424       1.96235711
H       -0.30528258      -2.65366597       0.56413487
H        2.23748226       0.71465975       1.36443537
H        2.91690288       1.01580667       4.01605601
H        5.08716123       5.14672121       4.27716304
H        8.10633857       2.30004171       3.12213663
H        8.53713846       0.17933715       2.05666042
H        7.92583952      -1.91231808       0.68608312
H        5.81143583      -2.63457055       2.33843509
H        5.33064950      -2.13639137       0.68851359
