186
Properties=species:S:1:pos:R:3 pbc="F F F"
C        1.79193081       1.79193081      -1.79193081
C        3.08538164       1.38359357      -2.10393478
C        3.88408742       2.18753446      -2.91575318
C        3.38824357       3.39584891      -3.41248541
C        2.08704019       3.82224997      -3.09916562
C        1.29255560       2.99876938      -2.28109225
C        1.56367649       5.13794972      -3.66532311
H        2.44923599       5.76783407      -3.82425688
N        0.71327614       5.83246178      -2.68466699
C        0.28338368       7.17242222      -3.12713151
H       -0.46845024       7.49516980      -2.39179182
C        1.41819190       8.18862086      -3.00667465
C        1.69067587       8.73877248      -1.73792196
C        2.72945651       9.65447061      -1.55117449
C        3.52326755      10.03638060      -2.62831378
C        3.27435720       9.49596783      -3.88600505
Br       4.35513566      10.00536054      -5.35235583
C        2.23739000       8.57850865      -4.07849845
C       -0.49609284       7.06808983      -4.45204731
H       -1.39004517       6.45409152      -4.26989662
C       -1.00889222       8.40644947      -4.97908284
C        0.32322323       6.29449403      -5.47196433
O        0.47708681       6.68812372      -6.62887828
C        0.86980368       4.94915930      -5.02959806
H        1.62673386       4.64878394      -5.76710577
C       -0.26496610       3.92579960      -5.07168826
H        3.47796136       0.44401229      -1.72421106
H        4.89457100       1.87237263      -3.16377420
H        4.02986462       4.00481145      -4.04710915
H        0.27668151       3.30071883      -2.03236543
H        1.23786396       5.92613755      -1.81310134
H        1.08708440       8.45458892      -0.87712104
H        2.91848737      10.06879021      -0.56374140
H        4.32910825      10.74970610      -2.47913268
H        2.08440868       8.18210018      -5.07814593
H       -0.20414638       9.05994423      -5.32632339
H       -1.57596722       8.93687180      -4.20700688
H       -1.67768321       8.24659766      -5.83232977
H       -0.99739790       4.08959108      -4.27504637
H        0.12143389       2.90629849      -4.97732701
H       -0.80161590       3.98215811      -6.02544631
C       -1.79193081      -1.79193081      -1.79193081
C       -2.86526955      -2.47727198      -1.23036846
C       -3.67250298      -3.27462643      -2.04024564
C       -3.40467073      -3.38462291      -3.40728425
C       -2.32034478      -2.70345233      -3.98465867
C       -1.51676926      -1.90079829      -3.15484968
C       -2.05733089      -2.82802450      -5.48159393
H       -2.45934828      -3.80710519      -5.77487347
N       -0.61245499      -2.85567205      -5.76227786
C       -0.29609865      -3.10556536      -7.18127340
H        0.78593259      -2.93028096      -7.27416301
C       -0.49244332      -4.57685816      -7.54418593
C        0.52245956      -5.49167202      -7.19815786
C        0.39758566      -6.85502285      -7.47766442
C       -0.74808017      -7.33537311      -8.10450865
C       -1.76403439      -6.44769840      -8.44459729
Br      -3.32710198      -7.09602747      -9.28972258
C       -1.64517360      -5.08297033      -8.16625316
C       -0.93786769      -2.01987379      -8.06630282
H       -0.50817724      -1.05027779      -7.77548793
C       -0.64291176      -2.17742002      -9.55630832
C       -2.42169500      -1.91269795      -7.75528864
O       -3.27917799      -1.87618679      -8.63872402
C       -2.80302217      -1.75062158      -6.29491728
H       -3.88235732      -1.94129077      -6.21897546
C       -2.54803187      -0.30049752      -5.88399237
H       -3.08241393      -2.39510820      -0.16866259
H       -4.51312540      -3.81075288      -1.60683955
H       -4.05127459      -4.01079522      -4.01971542
H       -0.67689690      -1.35355087      -3.57931800
H       -0.18869117      -3.59262750      -5.19578418
H        1.42806551      -5.14312482      -6.70373506
H        1.19550673      -7.54158170      -7.20494402
H       -0.84065214      -8.39598357      -8.32131134
H       -2.46639572      -4.43024891      -8.44801017
H       -1.14009915      -3.04631755      -9.99570454
H        0.43395128      -2.27000729      -9.73185544
H       -0.99547570      -1.29832327     -10.10744524
H       -1.47956741      -0.07380837      -5.81386376
H       -3.00929276      -0.07916297      -4.91660366
H       -2.98129920       0.39084325      -6.61553256
C       -1.79193081       1.79193081       1.79193081
C       -1.41137696       3.10410009       2.05743294
C       -2.22317250       3.90809777       2.85610479
C       -3.41134446       3.39868335       3.38655008
C       -3.80289183       2.07399807       3.13156588
C       -2.97448314       1.27619328       2.32174081
C       -5.11130588       1.54572579       3.70991766
H       -5.28975114       2.12713814       4.62443766
N       -4.97723449       0.13708556       4.11608485
C       -6.17160405      -0.39089554       4.80222890
H       -6.00226842      -1.47425969       4.89050265
C       -6.25608250       0.11618670       6.24121821
C       -5.46329920      -0.51610219       7.22017331
C       -5.47277233      -0.08787070       8.55019998
C       -6.27116093       0.98653364       8.93026736
C       -7.05293949       1.62842060       7.97496999
Br      -8.13420075       3.09448292       8.48416834
C       -7.04647886       1.20521864       6.64269959
C       -7.40539262      -0.26884250       3.88749419
H       -7.21976068      -0.87419242       2.98837471
C       -8.69169535      -0.81671408       4.50165882
C       -7.53827801       1.16119532       3.39020826
O       -8.60827641       1.77074744       3.41506496
C       -6.30418750       1.78272412       2.76164942
H       -6.48547203       2.86416205       2.69298948
C       -6.15425361       1.23640576       1.34186240
H       -0.49037738       3.50919882       1.64660852
H       -1.93127144       4.93425278       3.06519362
H       -4.03015215       4.04693736       4.00469571
H       -3.26053342       0.24960747       2.09962488
H       -4.17514246       0.05816954       4.74379086
H       -4.82665587      -1.35715567       6.94929416
H       -4.85572757      -0.59369888       9.28899028
H       -6.27669125       1.31551291       9.96574288
H       -7.67120972       1.74020748       5.93323759
H       -9.05637759      -0.20654932       5.33229297
H       -8.54502244      -1.83996711       4.86285612
H       -9.48996653      -0.83999080       3.75126848
H       -5.84630423       0.18614893       1.33478639
H       -5.41733709       1.81319090       0.77453140
H       -7.10434007       1.30188550       0.79976294
C        1.79193081      -1.79193081       1.79193081
C        1.31235621      -2.24203679       3.01851698
C        2.11736326      -3.05336438       3.81664741
C        3.39783353      -3.41173844       3.38700592
C        3.89584335      -2.95827686       2.15433557
C        3.07057277      -2.14260143       1.35924303
C        5.29095254      -3.37500334       1.70099344
H        5.86153119      -3.55847115       2.62132460
N        5.96443562      -2.27565102       0.99031826
C        7.36603392      -2.57545963       0.64144386
H        7.68314175      -1.75685942      -0.02148980
C        8.27766865      -2.47238588       1.86343287
C        8.69666799      -1.19222103       2.27848130
C        9.51032690      -1.02300842       3.40176628
C        9.91870556      -2.13016927       4.13908710
C        9.50662900      -3.40056965       3.74913142
Br      10.05211293      -4.90861485       4.75212424
C        8.69156240      -3.57577908       2.62705561
C        7.43388467      -3.83437660      -0.24421697
H        6.87778936      -3.62591002      -1.16975642
C        8.84740513      -4.21136992      -0.68213495
C        6.68753482      -4.97624427       0.42590249
O        7.16377117      -6.10804842       0.52226923
C        5.27157611      -4.68674136       0.89024357
H        4.97648184      -5.50619188       1.55994984
C        4.34624779      -4.71251804      -0.32624407
H        0.31667241      -1.97044576       3.35906654
H        1.74688216      -3.40894958       4.77488610
H        4.00642233      -4.04893508       4.02642781
H        3.42828576      -1.78688509       0.39459493
H        5.94376576      -1.44655582       1.58678127
H        8.38881218      -0.30838508       1.72159711
H        9.82444755      -0.02583202       3.70073942
H       10.55249237      -1.99438956       5.01106511
H        8.39347125      -4.58672926       2.36445428
H        9.46349564      -4.57330495       0.14532065
H        9.35345050      -3.35570797      -1.14124702
H        8.81195289      -5.01528572      -1.42599439
H        4.49879281      -3.84694478      -0.97849804
H        3.29559176      -4.73008995      -0.02062232
H        4.52380203      -5.61064631      -0.92845983
C       -0.00445707       0.01189536      -1.78238275
H       -0.66409135       0.67374010      -2.43557963
H        0.65740317      -0.63156657      -2.45157240
C       -0.90989263      -0.90692880      -0.91072765
C        0.90977584       0.90977584      -0.90977584
C       -0.00465871       1.77757030       0.00794375
H       -0.66225468       2.44313916      -0.64384735
H        0.64322798       2.43503045       0.67728295
C       -1.78241447       0.00034974      -0.00472694
H       -2.45427497      -0.65498947       0.64260836
H       -2.43311707       0.67328779      -0.65473579
C       -0.91132561       0.90220522       0.91563759
C       -0.01476271      -0.02253852       1.78660255
H       -0.67934791      -0.69751639       2.42135241
H        0.63392994       0.61504881       2.47327442
C        0.01484550      -1.77751727      -0.01636693
H        0.67870853      -2.42144646      -0.68295456
H       -0.62264859      -2.45592969       0.64226336
C        1.78714474       0.01002794       0.00389507
H        2.44202412       0.67113390       0.66197326
H        2.45385902      -0.65136977      -0.64189061
C        0.91606151      -0.90478549       0.90901405
