194
Properties=species:S:1:pos:R:3 pbc="F F F"
C        1.79193081       1.79193081      -1.79193081
C        3.08538164       1.38359357      -2.10393478
C        3.88408742       2.18753446      -2.91575318
C        3.38824357       3.39584891      -3.41248541
C        2.08704019       3.82224997      -3.09916562
C        1.29255560       2.99876938      -2.28109225
C        1.56367649       5.13794972      -3.66532311
H        2.44923599       5.76783407      -3.82425688
N        0.71327614       5.83246178      -2.68466699
C        0.28338368       7.17242222      -3.12713151
H       -0.46845024       7.49516980      -2.39179182
C        1.41819190       8.18862086      -3.00667465
C        1.69067587       8.73877248      -1.73792196
C        2.72945651       9.65447061      -1.55117449
C        3.52326755      10.03638060      -2.62831378
C        3.27435720       9.49596783      -3.88600505
C        2.23739000       8.57850865      -4.07849845
C       -0.49609284       7.06808983      -4.45204731
H       -1.39004517       6.45409152      -4.26989662
C       -1.00889222       8.40644947      -4.97908284
C        0.32322323       6.29449403      -5.47196433
O        0.47708681       6.68812372      -6.62887828
C        0.86980368       4.94915930      -5.02959806
H        1.62673386       4.64878394      -5.76710577
C       -0.26496610       3.92579960      -5.07168826
H        3.47796136       0.44401229      -1.72421106
H        4.89457100       1.87237263      -3.16377420
H        4.02986462       4.00481145      -4.04710915
H        0.27668151       3.30071883      -2.03236543
H        1.23786396       5.92613755      -1.81310134
H        1.08708440       8.45458892      -0.87712104
H        2.91848737      10.06879021      -0.56374140
H        4.32910825      10.74970610      -2.47913268
H        2.08440868       8.18210018      -5.07814593
H       -0.20414638       9.05994423      -5.32632339
H       -1.57596722       8.93687180      -4.20700688
H       -1.67768321       8.24659766      -5.83232977
H       -0.99739790       4.08959108      -4.27504637
H        0.12143389       2.90629849      -4.97732701
H       -0.80161590       3.98215811      -6.02544631
C        4.09715727       9.88377012      -5.00234255
C        4.78625233      10.20855453      -5.93727522
Br       5.90046077      10.73370345      -7.44898226
C       -1.79193081      -1.79193081      -1.79193081
C       -3.16688258      -1.57892509      -1.82710233
C       -3.96714101      -2.38074167      -2.63949238
C       -3.39142690      -3.39197912      -3.41317187
C       -2.00597612      -3.62136111      -3.38111854
C       -1.21165340      -2.80224504      -2.55851879
C       -1.39970165      -4.72161011      -4.24563756
H       -2.19402642      -5.46825643      -4.37904409
N       -0.29285309      -5.39293255      -3.54461927
C        0.24830419      -6.55213873      -4.27910288
H        1.15937922      -6.84259248      -3.73529812
C       -0.68013130      -7.76108600      -4.17227011
C       -0.63533816      -8.53615730      -2.99587487
C       -1.47373420      -9.64023987      -2.82112754
C       -2.38033549      -9.99081112      -3.81681532
C       -2.44460221      -9.23108991      -4.98063795
C       -1.60926172      -8.12475188      -5.16038349
C        0.75369538      -6.11146184      -5.66627785
H        1.56272600      -5.38226558      -5.51440339
C        1.36010844      -7.24153446      -6.49521407
C       -0.34188189      -5.35176967      -6.39603003
O       -0.63876939      -5.58735748      -7.56796195
C       -0.99731945      -4.20817174      -5.64306985
H       -1.91036006      -3.94005300      -6.19221050
C       -0.05600060      -3.00409688      -5.67242428
H       -3.62254196      -0.79285713      -1.23078562
H       -5.04147908      -2.21742715      -2.67181160
H       -4.03672696      -4.00290358      -4.04215468
H       -0.13394238      -2.95185706      -2.52396634
H       -0.63303232      -5.70928337      -2.63478717
H        0.06241687      -8.28193570      -2.19927554
H       -1.41856646     -10.22587626      -1.90657626
H       -3.02950862     -10.85084537      -3.67759305
H       -1.69895810      -7.56112718      -6.08456951
H        0.61427522      -7.96827619      -6.82812028
H        2.12945718      -7.77245795      -5.92491069
H        1.83377616      -6.83784353      -7.39717685
H        0.82317167      -3.15272225      -5.03768896
H       -0.56869897      -2.09615146      -5.34020897
H        0.30386585      -2.81905852      -6.69079585
C       -3.38550260      -9.58665317      -6.01111416
C       -4.17350668      -9.88443740      -6.87413799
Br      -5.44764263     -10.36592931      -8.26957452
C       -1.79193081       1.79193081       1.79193081
C       -1.21331901       2.79315740       2.56643358
C       -2.02262618       3.60107276       3.36367611
C       -3.40613595       3.40589811       3.38454383
C       -4.00133970       2.39439299       2.61272310
C       -3.17166365       1.58927578       1.81147780
C       -5.51491712       2.21062584       2.64140637
H       -5.84135252       2.57540794       3.62456648
N       -5.87405755       0.78466256       2.57168479
C       -7.31993275       0.53654042       2.72646424
H       -7.46078918      -0.52745407       2.48517628
C       -7.75485008       0.67375690       4.18488043
C       -7.51652654      -0.40693579       5.05777956
C       -7.86600016      -0.33990650       6.40900795
C       -8.45659547       0.81204913       6.91931733
C       -8.69048486       1.89199180       6.07385342
C       -8.34176822       1.83109739       4.72153148
C       -8.10596135       1.28509648       1.63298647
H       -7.78401152       0.89235611       0.65757533
C       -9.61622450       1.06731694       1.69309865
C       -7.70996448       2.75244573       1.62727137
O       -8.54247184       3.65950872       1.59210825
C       -6.22433939       3.05826064       1.56596101
H       -6.10139884       4.11970345       1.82152127
C       -5.74591668       2.85870869       0.12789639
H       -0.13851511       2.95366880       2.55400081
H       -1.57581218       4.38561561       3.96929004
H       -4.01750993       4.05165768       4.01261761
H       -3.60889442       0.80557074       1.19530061
H       -5.37402111       0.29032480       3.31275694
H       -7.05252569      -1.31912870       4.68539737
H       -7.67610129      -1.18783200       7.06274969
H       -8.72807662       0.85959900       7.97027142
H       -8.54134677       2.70094567       4.10236235
H      -10.07694017       1.54121639       2.56396469
H       -9.85444253      -0.00123744       1.71470636
H      -10.09669776       1.49744827       0.80709819
H       -5.72060156       1.80173319      -0.15509521
H       -4.74408929       3.27544022      -0.01447013
H       -6.41257606       3.36945383      -0.57604138
C       -9.29595007       3.08834378       6.59897609
C       -9.80302718       4.09028856       7.03876633
Br     -10.62292798       5.71034854       7.74986995
C        1.79193081      -1.79193081       1.79193081
C        1.23374860      -2.87572969       2.46343170
C        2.04370869      -3.68285709       3.26080928
C        3.40745268      -3.40447870       3.38464651
C        3.98131756      -2.30959576       2.71754245
C        3.15150269      -1.50624871       1.91466583
C        5.47486722      -2.03506644       2.85701566
H        5.76330078      -2.44289335       3.83513281
N        5.74304249      -0.58816730       2.89919512
C        7.15715142      -0.26201792       3.16376807
H        7.24233046       0.82220426       2.99838518
C        7.50932835      -0.46777626       4.63638280
C        7.14702151       0.53638387       5.55673267
C        7.41610009       0.40230528       6.92130680
C        8.04857737      -0.74208091       7.39730365
C        8.40472585      -1.74757246       6.50403177
C        8.13687221      -1.61948509       5.13803979
C        8.05669334      -0.88708777       2.08026320
H        7.77040973      -0.45164951       1.11188373
C        9.54276543      -0.58095668       2.25291799
C        7.75918930      -2.37251607       1.95797622
O        8.65014231      -3.22219751       1.92174899
C        6.30351998      -2.76472455       1.78031651
H        6.23513525      -3.84623879       1.96124953
C        5.90265858      -2.50090817       0.32895502
H        0.17465149      -3.10109174       2.37044148
H        1.61295465      -4.53161262       3.78615056
H        4.02005815      -4.05119667       4.01053041
H        3.57341950      -0.65822403       1.37812224
H        5.16679606      -0.17544974       3.63485706
H        6.64788390       1.44072309       5.21163356
H        7.13085610       1.19205183       7.61221471
H        8.25722893      -0.84181930       8.45889881
H        8.43106520      -2.43274205       4.48084754
H        9.97903929      -1.08178317       3.12129879
H        9.70838682       0.49652070       2.35604533
H       10.10424780      -0.92140290       1.37559351
H        5.82537848      -1.43118692       0.11067414
H        4.94111319      -2.96839550       0.09555071
H        6.64363668      -2.92212726      -0.35977543
C        9.05401885      -2.93623092       6.99302017
C        9.59780174      -3.93173239       7.40254795
Br      10.47705267      -5.54137406       8.06471974
C       -0.00445707       0.01189536      -1.78238275
H       -0.66409135       0.67374010      -2.43557963
H        0.65740317      -0.63156657      -2.45157240
C       -0.90989263      -0.90692880      -0.91072765
C        0.90977584       0.90977584      -0.90977584
C       -0.00465871       1.77757030       0.00794375
H       -0.66225468       2.44313916      -0.64384735
H        0.64322798       2.43503045       0.67728295
C       -1.78241447       0.00034974      -0.00472694
H       -2.45427497      -0.65498947       0.64260836
H       -2.43311707       0.67328779      -0.65473579
C       -0.91132561       0.90220522       0.91563759
C       -0.01476271      -0.02253852       1.78660255
H       -0.67934791      -0.69751639       2.42135241
H        0.63392994       0.61504881       2.47327442
C        0.01484550      -1.77751727      -0.01636693
H        0.67870853      -2.42144646      -0.68295456
H       -0.62264859      -2.45592969       0.64226336
C        1.78714474       0.01002794       0.00389507
H        2.44202412       0.67113390       0.66197326
H        2.45385902      -0.65136977      -0.64189061
C        0.91606151      -0.90478549       0.90901405
