141
Properties=species:S:1:pos:R:3 pbc="F F F"
C        0.00000000       0.00000000       0.00000000
C        3.59565943       2.85047069      -4.60800468
O        3.34830492       3.26649149      -3.26638501
C        2.52595051       2.47231030      -2.50451607
C        1.61594799       1.56697432      -3.07229718
C        0.80030500       0.77178631      -2.26407210
C        0.88144055       0.88144055      -0.88144055
C        1.75871492       1.79170593      -0.29851128
C        2.58574080       2.60456886      -1.09797961
C        3.48904656       3.56237980      -0.36135959
O        3.37682281       3.64781577       0.85793362
N        4.38285418       4.25894930      -1.13450944
C        5.26378146       5.17496840      -0.63823111
S        6.27380719       5.86399136      -1.82920696
C        7.02000378       6.81764725      -0.61151563
C        6.44697727       6.55214463       0.61965780
N        5.43952883       5.59645910       0.58463151
C        6.81246029       7.21031263       1.87458013
C        7.94321689       8.03357437       1.99436244
C        8.24750929       8.66026929       3.20879714
C        7.42446788       8.46614711       4.31514522
Br       7.83413366       9.31914223       5.95100694
C        6.30354902       7.64742387       4.22154314
C        6.00259970       7.02256433       3.00700431
H        2.71995367       3.02814851      -5.23961323
H        3.91252094       1.80289560      -4.64895055
H        4.41609965       3.46145314      -4.99676440
H        1.50686587       1.46331681      -4.14778506
H        0.10507133       0.07374760      -2.72469342
H        1.80531176       1.87189904       0.78678243
H        4.39398675       4.11705482      -2.13506270
H        7.80582136       7.51016702      -0.87145263
H        8.61186536       8.20140412       1.15526499
H        9.12716531       9.29489578       3.27814816
H        5.65573848       7.48583412       5.07886278
H        5.12117122       6.38352021       2.94743457
C       -3.08567538      -4.69770420      -3.27075522
O       -3.25260031      -3.28321820      -3.34536291
C       -2.46984189      -2.51438484      -2.51855015
C       -1.86832284      -3.02790774      -1.35898891
C       -1.07392064      -2.21594668      -0.54629608
C       -0.88144055      -0.88144055      -0.88144055
C       -1.49014280      -0.34574961      -2.01303973
C       -2.29784946      -1.14861594      -2.84182388
C       -2.91634934      -0.46208954      -4.03434706
O       -2.76690543       0.75065713      -4.15045666
N       -3.59523527      -1.27304130      -4.90803634
C       -4.22668825      -0.82064224      -6.02965048
S       -4.96454742      -2.05948863      -6.94296946
C       -5.50671802      -0.87768280      -8.06476583
C       -5.09470565       0.38181091      -7.66656936
N       -4.35158836       0.39327701      -6.49304507
C       -5.40896053       1.62772288      -8.36695514
C       -5.98610696       1.65013240      -9.64645426
C       -6.28872917       2.86427334     -10.27452561
C       -6.01357503       4.06698762      -9.62888236
Br      -6.42975737       5.70399552     -10.47650710
C       -5.43374979       4.06855683      -8.36423679
C       -5.13235125       2.85393899      -7.73974746
H       -3.53530147      -5.09620421      -2.35620972
H       -2.03070953      -4.97993657      -3.35372099
H       -3.61543781      -5.13759035      -4.12128904
H       -2.00813966      -4.05961756      -1.05021053
H       -0.61374723      -2.63522398       0.34545886
H       -1.33628615       0.70428696      -2.25842918
H       -3.66240504      -2.26373835      -4.71996088
H       -6.09443771      -1.17246263      -8.92054067
H       -6.20711866       0.73230150     -10.18318733
H       -6.73700659       2.85775050     -11.26465685
H       -5.21147144       5.00072202      -7.85196039
H       -4.67810446       2.86950492      -6.74865732
C       -2.80933426       4.57347125       3.67132928
O       -3.27008237       3.26294967       3.34814938
C       -2.47330931       2.50220420       2.52726337
C       -1.50590919       3.06746455       1.68184575
C       -0.71037196       2.26012246       0.86566898
C       -0.88144055       0.88144055       0.88144055
C       -1.85296239       0.30265039       1.69331935
C       -2.66700864       1.10154869       2.51973194
C       -3.69358332       0.37034233       3.34886030
O       -3.82514316      -0.83824452       3.17980632
N       -4.39558326       1.13506846       4.24566119
C       -5.36936968       0.64286828       5.06474302
S       -6.05138612       1.81943879       6.09618061
C       -7.08712758       0.61446353       6.74757554
C       -6.84869492      -0.60201537       6.13278455
N       -5.84913802      -0.56664250       5.16886090
C       -7.57436769      -1.84111907       6.41494417
C       -8.45070951      -1.97207464       7.50379395
C       -9.14058470      -3.16957551       7.72797225
C       -8.95719937      -4.24783151       6.86610191
Br      -9.89527330      -5.86048687       7.16748252
C       -8.08691830      -4.14322205       5.78573350
C       -7.39901728      -2.94567716       5.56481959
H       -2.92177384       5.24847666       2.81746490
H       -1.77586179       4.55511385       4.03339145
H       -3.43883025       4.95384518       4.48164176
H       -1.35249886       4.14100565       1.62446323
H        0.03619858       2.71848920       0.22122173
H       -1.98062423      -0.77908315       1.68888729
H       -4.21242295       2.12708887       4.30659245
H       -7.80190234       0.87128052       7.51425815
H       -8.61230533      -1.15524567       8.20094483
H       -9.81551406      -3.24791762       8.57631648
H       -7.93322963      -4.97884110       5.10832129
H       -6.72001148      -2.87721752       4.71446290
C        3.95983560      -2.69779147       4.39650773
O        3.34476476      -3.28495420       3.25146245
C        2.53090535      -2.47852642       2.49334511
C        1.95318968      -1.30336338       2.99866643
C        1.13548684      -0.50594284       2.19473373
C        0.88144055      -0.88144055       0.88144055
C        1.42352041      -2.05670703       0.36870470
C        2.24691804      -2.87520661       1.16616462
C        2.77058900      -4.12988492       0.51231202
O        2.37273379      -4.40881441      -0.61484324
N        3.67318337      -4.85694567       1.24618387
C        4.23724317      -6.02273232       0.81700549
S        5.34662868      -6.69253630       1.92784053
C        5.61225238      -7.99559389       0.84132038
C        4.83475039      -7.83695567      -0.29224197
N        4.05286378      -6.68884254      -0.29034989
C        4.78154245      -8.77819305      -1.41154270
C        5.68649224      -9.84283516      -1.54689858
C        5.58959303     -10.73277074      -2.62338233
C        4.58793713     -10.56330928      -3.57577663
Br       4.45559065     -11.77046436      -5.02378606
C        3.68567237      -9.51000501      -3.46624763
C        3.78545957      -8.62256057      -2.38986043
H        3.23173192      -2.55518279       5.20080069
H        4.46344313      -1.75919847       4.14172549
H        4.72117791      -3.39653747       4.75660182
H        2.11015665      -0.98334403       4.02446707
H        0.70133052       0.40286488       2.60504670
H        1.20882426      -2.34197341      -0.66036930
H        3.93528235      -4.54110488       2.16971705
H        6.29654266      -8.78807204       1.10282632
H        6.48494122     -10.00108999      -0.82802671
H        6.30001987     -11.55107750      -2.70718445
H        2.90191939      -9.36574422      -4.20495379
H        3.07193746      -7.80141110      -2.31609169
