149
Properties=species:S:1:pos:R:3 pbc="F F F"
C        0.00000000       0.00000000       0.00000000
C        3.59565943       2.85047069      -4.60800468
O        3.34830492       3.26649149      -3.26638501
C        2.52595051       2.47231030      -2.50451607
C        1.61594799       1.56697432      -3.07229718
C        0.80030500       0.77178631      -2.26407210
C        0.88144055       0.88144055      -0.88144055
C        1.75871492       1.79170593      -0.29851128
C        2.58574080       2.60456886      -1.09797961
C        3.48904656       3.56237980      -0.36135959
O        3.37682281       3.64781577       0.85793362
N        4.38285418       4.25894930      -1.13450944
C        5.26378146       5.17496840      -0.63823111
S        6.27380719       5.86399136      -1.82920696
C        7.02000378       6.81764725      -0.61151563
C        6.44697727       6.55214463       0.61965780
N        5.43952883       5.59645910       0.58463151
C        6.81246029       7.21031263       1.87458013
C        7.94321689       8.03357437       1.99436244
C        8.24750929       8.66026929       3.20879714
C        7.42446788       8.46614711       4.31514522
C        6.30354902       7.64742387       4.22154314
C        6.00259970       7.02256433       3.00700431
H        2.71995367       3.02814851      -5.23961323
H        3.91252094       1.80289560      -4.64895055
H        4.41609965       3.46145314      -4.99676440
H        1.50686587       1.46331681      -4.14778506
H        0.10507133       0.07374760      -2.72469342
H        1.80531176       1.87189904       0.78678243
H        4.39398675       4.11705482      -2.13506270
H        7.80582136       7.51016702      -0.87145263
H        8.61186536       8.20140412       1.15526499
H        9.12716531       9.29489578       3.27814816
H        5.65573848       7.48583412       5.07886278
H        5.12117122       6.38352021       2.94743457
C        7.73662170       9.11610545       5.56162593
C        7.99805053       9.66044556       6.60555352
Br       8.42075883      10.54059748       8.29349614
C       -4.50671345      -3.79468463      -2.75273672
O       -3.25772147      -3.34725106      -3.27620889
C       -2.49842514      -2.52908864      -2.47526311
C       -3.04795225      -1.79391220      -1.41335504
C       -2.24205949      -0.97698285      -0.61712106
C       -0.88144055      -0.88144055      -0.88144055
C       -0.32100912      -1.58198616      -1.94593685
C       -1.11914792      -2.40724270      -2.76189866
C       -0.40986542      -3.11021936      -3.89270116
O        0.77188840      -2.84572161      -4.09287174
N       -1.16115106      -4.01060204      -4.60455981
C       -0.68656351      -4.72442473      -5.66599274
S       -1.83715351      -5.78991544      -6.33993657
C       -0.66906881      -6.28114950      -7.49894835
C        0.51724464      -5.59747221      -7.29923652
N        0.48934480      -4.70821795      -6.23248327
C        1.71682085      -5.73971627      -8.12529738
C        1.85716804      -6.75467918      -9.08491768
C        3.01402507      -6.84464806      -9.86835846
C        4.04215423      -5.92138680      -9.69623721
C        3.92815757      -4.91254979      -8.74503752
C        2.77133405      -4.82569941      -7.96379436
H       -5.24410917      -2.98623831      -2.75736792
H       -4.38929775      -4.22332031      -1.75174902
H       -4.87611762      -4.58609519      -3.41210439
H       -4.10900779      -1.82478978      -1.18417017
H       -2.68763757      -0.41917382       0.20329905
H        0.74589335      -1.49074033      -2.14558140
H       -2.13095734      -4.15532401      -4.35982293
H       -0.92463004      -7.01445922      -8.24835175
H        1.07965568      -7.49659118      -9.24106899
H        3.10036782      -7.63766759     -10.60661316
H        4.72512687      -4.18838780      -8.59944888
H        2.69498447      -4.03023742      -7.22200391
C        5.22872212      -6.01285135     -10.50697199
C        6.22247272      -6.08945291     -11.18596238
Br       7.82928340      -6.21331116     -12.28383240
C       -3.06972871       3.28897749       4.69542860
O       -3.33998215       3.24551161       3.29568766
C       -2.51223219       2.47011072       2.52043398
C       -1.22563265       2.09339154       2.93619530
C       -0.41541442       1.29877170       2.12197728
C       -0.88144055       0.88144055       0.88144055
C       -2.14429459       1.26553992       0.43909763
C       -2.97330359       2.06998187       1.24500382
C       -4.31589518       2.43508483       0.66180593
O       -4.55781605       2.10398156      -0.49509266
N       -5.16997008       3.10858553       1.49775731
C       -6.41598421       3.52794012       1.13305665
S       -7.26476309       4.31451105       2.38773138
C       -8.58793239       4.54385954       1.31737473
C       -8.29347478       4.01133314       0.07465618
N       -7.03771717       3.42360338      -0.00996413
C       -9.17852287       4.05947303      -1.08980310
C      -10.51928666       4.46638593      -1.00324377
C      -11.32775740       4.51642374      -2.14519969
C      -10.80240680       4.15668020      -3.38361723
C       -9.47880296       3.74195107      -3.49132428
C       -8.67396456       3.69274289      -2.34854774
H       -2.18534069       3.89881106       4.90356365
H       -2.96870498       2.28187279       5.11378932
H       -3.92567357       3.76678237       5.18186125
H       -0.81527871       2.41329375       3.88939528
H        0.57668737       1.01485177       2.46534794
H       -2.49264961       0.93705166      -0.53927290
H       -4.87305246       3.33655304       2.43649877
H       -9.47495590       5.05761964       1.65486547
H      -10.96499649       4.74635626      -0.05334826
H      -12.36260215       4.83628398      -2.05497320
H       -9.05870275       3.45572588      -4.45171882
H       -7.63845032       3.36586758      -2.44706103
C      -11.63446845       4.21412135      -4.55748857
C      -12.33132008       4.26222831      -5.54060582
Br     -13.45807023       4.34001319      -7.13022326
C        4.47158315      -3.85145794       2.73109370
O        3.25547188      -3.34656612       3.27914342
C        2.49668151      -2.52979609       2.47629929
C        3.03407277      -1.84744433       1.37370239
C        2.22885121      -1.03021813       0.57709407
C        0.88144055      -0.88144055       0.88144055
C        0.33434799      -1.52875556       1.98582859
C        1.13220872      -2.35341421       2.80266634
C        0.43853226      -2.99612853       3.97812516
O       -0.72692212      -2.68652434       4.20710274
N        1.18375483      -3.89761322       4.69494486
C        0.72189044      -4.56112156       5.79396898
S        1.85947155      -5.64192616       6.46560780
C        0.71517075      -6.05708205       7.67691385
C       -0.45464396      -5.34136237       7.49274568
N       -0.43356829      -4.48803898       6.39688572
C       -1.63024201      -5.41749185       8.36094296
C       -1.77119641      -6.39610289       9.35752234
C       -2.90385693      -6.42278315      10.18005522
C       -3.90709156      -5.47207030      10.01049103
C       -3.79237771      -4.49844031       9.02336715
C       -2.65977777      -4.47480396       8.20313352
H        5.23417558      -3.06804700       2.68549282
H        4.30757304      -4.30773891       1.74905514
H        4.83707577      -4.63316184       3.40407958
H        4.08546072      -1.92061910       1.11188793
H        2.66470587      -0.51390371      -0.27509724
H       -0.72192725      -1.39602683       2.21632879
H        2.13984045      -4.08199822       4.42426560
H        0.97176702      -6.77411440       8.44155959
H       -1.01304880      -7.15789877       9.51315453
H       -2.99107894      -7.18853728      10.94645459
H       -4.57018014      -3.75339636       8.87949360
H       -2.58257703      -3.70639316       7.43344073
C       -5.06857879      -5.49839257      10.86128744
C       -6.04132435      -5.52043748      11.57382944
Br      -7.61417165      -5.55608222      12.72594959
