162
Properties=species:S:1:pos:R:3 pbc="F F F"
C        4.50556346       3.76037472      -5.51790870
O        4.25820895       4.17639551      -4.17628903
C        3.43585453       3.38221433      -3.41442010
C        2.52585201       2.47687834      -3.98220120
C        1.71020902       1.68169033      -3.17397612
C        1.79134457       1.79134457      -1.79134457
C        2.66861895       2.70160996      -1.20841531
C        3.49564483       3.51447288      -2.00788364
C        4.39895058       4.47228382      -1.27126361
O        4.28672683       4.55771980      -0.05197040
N        5.29275820       5.16885332      -2.04441346
C        6.17368549       6.08487243      -1.54813513
S        7.18371122       6.77389539      -2.73911098
C        7.92990780       7.72755128      -1.52141965
C        7.35688129       7.46204865      -0.29024622
N        6.34943285       6.50636313      -0.32527252
C        7.72236432       8.12021665       0.96467610
C        8.85312092       8.94347839       1.08445841
C        9.15741332       9.57017331       2.29889312
C        8.33437191       9.37605113       3.40524120
Br       8.74403768      10.22904626       5.04110291
C        7.21345305       8.55732789       3.31163912
C        6.91250372       7.93246835       2.09710029
H        3.62985769       3.93805253      -6.14951725
H        4.82242497       2.71279962      -5.55885457
H        5.32600368       4.37135717      -5.90666842
H        2.41676990       2.37322084      -5.05768909
H        1.01497535       0.98365162      -3.63459744
H        2.71521579       2.78180306      -0.12312160
H        5.30389078       5.02695885      -3.04496672
H        8.71572538       8.42007105      -1.78135666
H        9.52176938       9.11130815       0.24536097
H       10.03706933      10.20479981       2.36824414
H        6.56564251       8.39573814       4.16895876
H        6.03107525       7.29342424       2.03753054
C       -4.14711631      -5.61082185      -4.02590871
O       -4.15691800      -4.20254468      -4.25143082
C       -3.37979849      -3.42895039      -3.42374007
C       -2.94816625      -3.87273305      -2.16403226
C       -2.15365701      -3.05902989      -1.35318858
C       -1.79134457      -1.79134457      -1.79134457
C       -2.23041457      -1.32200234      -3.02622729
C       -3.03561445      -2.12712820      -3.85525870
C       -3.46278379      -1.51392758      -5.16578665
O       -3.17662081      -0.33972119      -5.38007503
N       -4.13704664      -2.34398567      -6.02499267
C       -4.60832250      -1.95389317      -7.24447739
S       -5.38209048      -3.20610943      -8.10851768
C       -5.68845424      -2.10242724      -9.38799724
C       -5.18623666      -0.85289942      -9.07004009
N       -4.56068580      -0.78893397      -7.83144872
C       -5.30021892       0.33683135      -9.91451730
C       -5.74786249       0.27954380     -11.24382221
C       -5.86052009       1.44430481     -12.01247823
C       -5.52320990       2.67655937     -11.45853131
Br      -5.68310742       4.24767861     -12.49655222
C       -5.06899048       2.75577258     -10.14592392
C       -4.95725454       1.59027978      -9.38089703
H       -4.72076255      -5.86674360      -3.12992132
H       -3.12448768      -5.99897721      -3.97061427
H       -4.63702824      -6.08525788      -4.88174316
H       -3.22408278      -4.84842536      -1.77517167
H       -1.82666456      -3.42419933      -0.38236053
H       -1.94468899      -0.32284999      -3.35260147
H       -4.32529634      -3.29862837      -5.75189164
H       -6.22002328      -2.42826806     -10.26886174
H       -6.01202149      -0.66440144     -11.71129364
H       -6.21106919       1.37650593     -13.03906174
H       -4.79975443       3.71122258      -9.70389004
H       -4.59993845       1.66656531      -8.35359580
C       -3.76445676       5.52087637       4.49851374
O       -4.17606748       4.17661796       4.25820806
C       -3.38212901       3.41463523       3.43572471
C       -2.48273426       3.98237386       2.51982344
C       -1.68757574       3.17406675       1.70423299
C       -1.79134457       1.79134457       1.79134457
C       -2.69573881       1.20830671       2.67459869
C       -3.50849116       2.00783220       3.50167798
C       -4.45970806       1.27102032       4.41176964
O       -4.54068997       0.05095344       4.30477362
N       -5.15579563       2.04496191       5.30526744
C       -6.06627724       1.54856524       6.19185057
S       -6.75603287       2.74082357       7.19986116
C       -7.70178978       1.52233312       7.95475583
C       -7.43363618       0.28993887       7.38560112
N       -6.48214100       0.32474110       6.37418639
C       -8.08528477      -0.96612937       7.75874947
C       -8.90352378      -1.08466025       8.89327736
C       -9.52410761      -2.30036150       9.20494741
C       -9.32883629      -3.40922341       8.38556896
Br     -10.17360042      -5.04682742       8.80520803
C       -8.51499106      -3.31685097       7.26100173
C       -7.89622962      -2.10103950       6.95268166
H       -3.94817764       6.14824258       3.62100726
H       -2.71579433       5.56729032       4.81099451
H       -4.37370705       5.91048178       5.31984044
H       -2.38383912       5.05782095       2.40601975
H       -0.99418409       3.63468070       1.00435964
H       -2.77138071       0.12289669       2.72586305
H       -5.01788150       3.04611201       5.31182283
H       -8.39219679       1.78265219       8.74230410
H       -9.07204688      -0.24356011       9.55922980
H      -10.15492265      -2.36871607      10.08741843
H       -8.35255116      -4.17611421       6.61598494
H       -7.26096480      -2.04245548       6.06845962
C        4.25516650      -3.93261917       5.59606121
O        4.25649765      -4.16545465       4.18894119
C        3.43042284      -3.38003147       3.42203465
C        2.32381609      -2.70309050       3.95802497
C        1.51034533      -1.90861802       3.14691213
C        1.79134457      -1.79134457       1.79134457
C        2.86869832      -2.47513892       1.23480696
C        3.69721405      -3.28403963       2.03674766
C        4.82792365      -3.98713733       1.32743703
O        4.89408683      -3.89723053       0.10509967
N        5.70734573      -4.66921076       2.12946850
C        6.77759464      -5.37154759       1.65755082
S        7.71382530      -6.09531909       2.88757320
C        8.75433342      -6.74094511       1.68360020
C        8.31673711      -6.36719453       0.42524452
N        7.17809244      -5.57160369       0.43137236
C        8.94384458      -6.76864411      -0.83458382
C       10.19403882      -7.40503409      -0.88693202
C       10.75097365      -7.79010521      -2.11238535
C       10.06300453      -7.53891401      -3.29673670
Br      10.81435302      -8.06628154      -4.94865353
C        8.82663808      -6.90160524      -3.26910149
C        8.27324570      -6.51790049      -2.04327440
H        3.34106491      -4.32113970       6.05522287
H        4.39790270      -2.87115935       5.82501711
H        5.10086208      -4.48127325       6.02189394
H        2.05739924      -2.78247561       5.00780497
H        0.66033873      -1.38935562       3.58353007
H        3.07162907      -2.37961167       0.16889970
H        5.56270187      -4.68352699       3.12958749
H        9.59594527      -7.35412148       1.96708635
H       10.76249146      -7.60978117       0.01544394
H       11.71946263      -8.28316506      -2.12900269
H        8.28198188      -6.69736660      -4.18692659
H        7.30364466      -6.01924050      -2.03591622
C       -0.00445707       0.01189536      -1.78238275
H       -0.66409135       0.67374010      -2.43557963
H        0.65740317      -0.63156657      -2.45157240
C       -0.90989263      -0.90692880      -0.91072765
C        0.90977584       0.90977584      -0.90977584
C       -0.00465871       1.77757030       0.00794375
H       -0.66225468       2.44313916      -0.64384735
H        0.64322798       2.43503045       0.67728295
C       -1.78241447       0.00034974      -0.00472694
H       -2.45427497      -0.65498947       0.64260836
H       -2.43311707       0.67328779      -0.65473579
C       -0.91132561       0.90220522       0.91563759
C       -0.01476271      -0.02253852       1.78660255
H       -0.67934791      -0.69751639       2.42135241
H        0.63392994       0.61504881       2.47327442
C        0.01484550      -1.77751727      -0.01636693
H        0.67870853      -2.42144646      -0.68295456
H       -0.62264859      -2.45592969       0.64226336
C        1.78714474       0.01002794       0.00389507
H        2.44202412       0.67113390       0.66197326
H        2.45385902      -0.65136977      -0.64189061
C        0.91606151      -0.90478549       0.90901405
