186
Properties=species:S:1:pos:R:3 pbc="F F F"
C        1.79133854       1.79133854      -1.79133854
C        1.93840720       3.14298342      -1.48828130
C        2.74735037       3.94517542      -2.29150278
C        3.41963028       3.39071651      -3.38313966
C        3.29499839       2.02450966      -3.68461860
C        4.02047639       1.45687887      -4.89150721
N        4.44446607       0.05327821      -4.76001453
C        5.46208267      -0.12870203      -3.70484892
C        5.92843431      -1.59837450      -3.61909740
N        6.48651676      -2.14268474      -4.87673853
C        5.50187289      -1.90234026      -5.95543179
C        4.96580350      -0.45020633      -6.04665476
C        7.79872984      -1.57136358      -5.22177741
C        8.86658807      -1.82185392      -4.17650766
C        9.15881237      -3.12604865      -3.74614750
C       10.12199810      -3.35132700      -2.76069801
C       10.81238578      -2.27742284      -2.20064658
C       10.53760492      -0.98135863      -2.63243153
Br      11.47120943       0.47744176      -1.87410498
C        9.57486179      -0.74860688      -3.61477505
C        2.44776356       1.23602082      -2.89024806
H        1.42605215       3.57933845      -0.63496063
H        2.85568050       5.00336295      -2.06705262
H        4.04358405       4.03376499      -3.99869164
H        4.89042677       2.08547997      -5.12332174
H        3.32355373       1.54695663      -5.73514114
H        5.04888347       0.13599314      -2.72502344
H        6.32365942       0.52975392      -3.87577076
H        6.63433123      -1.71010868      -2.78965451
H        5.06824655      -2.22151487      -3.33781390
H        5.92229144      -2.19958718      -6.92493168
H        4.64988056      -2.57597640      -5.78839384
H        5.76308117       0.20505857      -6.41898564
H        4.16292088      -0.43431970      -6.79302618
H        7.72910365      -0.49591182      -5.42406270
H        8.15865032      -2.03179816      -6.15204075
H        8.61248463      -3.96909328      -4.16672669
H       10.32607743      -4.36507797      -2.42533233
H       11.55576583      -2.46049330      -1.43010435
H        9.36638962       0.26876514      -3.93605515
H        2.32010414       0.17959855      -3.12249597
C       -1.79133854      -1.79133854      -1.79133854
C       -3.17764372      -1.71017769      -1.68185051
C       -3.98086037      -2.51237378      -2.49079441
C       -3.39687692      -3.37906547      -3.41754405
C       -2.00053977      -3.45283420      -3.55075268
C       -1.39596710      -4.42156534      -4.55133004
N       -0.12287403      -3.98619480      -5.14868998
C       -0.27910260      -2.77678995      -5.98233701
C        1.05769131      -2.36816909      -6.63867944
N        1.67624451      -3.41512307      -7.48169199
C        1.77338461      -4.65273183      -6.67561721
C        0.46662699      -5.07392946      -5.95494945
C        0.94231718      -3.65661471      -8.73484615
C        0.84549005      -2.43747316      -9.62925870
C        2.00059170      -1.74795633     -10.03154658
C        1.90631055      -0.60692170     -10.83075796
C        0.65768729      -0.14682735     -11.24646947
C       -0.49232914      -0.83373500     -10.86261368
Br      -2.18737058      -0.21175055     -11.42363505
C       -0.40585990      -1.97298321     -10.06218686
C       -1.20267998      -2.66730471      -2.70404775
H       -3.63929375      -1.03126134      -0.96979614
H       -5.06310236      -2.46231126      -2.40068245
H       -4.04066208      -3.99816844      -4.03721017
H       -2.12530305      -4.62820159      -5.34572383
H       -1.23744599      -5.36160488      -4.00660064
H       -0.60962503      -1.93013448      -5.37014053
H       -1.04504608      -2.93058780      -6.75355022
H        0.92078700      -1.43684298      -7.19782109
H        1.77269551      -2.11288200      -5.84435910
H        2.13281199      -5.48259332      -7.29785461
H        2.55300990      -4.49865184      -5.91665606
H       -0.25522395      -5.43275451      -6.69914691
H        0.70146613      -5.92201415      -5.30107934
H       -0.06261991      -4.05131018      -8.54332445
H        1.46535714      -4.42877609      -9.31547396
H        2.97873427      -2.09121521      -9.69763710
H        2.80806721      -0.07354618     -11.12085281
H        0.59240496       0.74513435     -11.86291621
H       -1.31245849      -2.49392670      -9.76482471
H       -0.11763421      -2.72812402      -2.77644043
C       -1.79133854       1.79133854       1.79133854
C       -1.44142970       2.00573292       3.12250931
C       -2.24492717       2.81462443       3.92447696
C       -3.38434122       3.41988253       3.38926270
C       -3.73417241       3.22735182       2.04260243
C       -4.99135900       3.88062691       1.49687657
N       -4.93296526       4.25139051       0.07340304
C       -3.92856035       5.30154815      -0.19187895
C       -3.92018573       5.71008032      -1.68110884
N       -5.22023600       6.19518660      -2.19485204
C       -6.24718089       5.17941915      -1.87163561
C       -6.25884338       4.70034517      -0.39693663
C       -5.59611618       7.51513273      -1.66210523
C       -4.60636382       8.61224148      -1.99736349
C       -4.24024263       8.86734884      -3.32868026
C       -3.30491204       9.85862935      -3.63217228
C       -2.73174561      10.61418701      -2.61032309
C       -3.10032789      10.37610400      -1.28775408
Br      -2.32400809      11.39814597       0.10060212
C       -4.03228056       9.38569546      -0.97694605
C       -2.93739520       2.38044494       1.25619230
H       -0.55118720       1.54586762       3.54329641
H       -1.98349654       2.97516816       4.96743136
H       -3.99915258       4.04495357       4.03193454
H       -5.23374600       4.76585869       2.09962378
H       -5.80139708       3.15521743       1.64903699
H       -2.92287827       4.93861422       0.04840755
H       -4.10863002       6.18205331       0.43850077
H       -3.12554019       6.44299814      -1.85466126
H       -3.62859608       4.83677404      -2.28082452
H       -7.24413700       5.54862970      -2.14513076
H       -6.07198267       4.30770502      -2.51738969
H       -6.63747572       5.50856842       0.24108123
H       -6.97034984       3.86993882      -0.31866131
H       -5.75272516       7.48186257      -0.57733320
H       -6.55785767       7.81878168      -2.09774644
H       -4.67096942       8.27062153      -4.13147291
H       -3.01853197      10.03392865      -4.66612883
H       -2.00026455      11.37926613      -2.85415378
H       -4.30427424       9.20671582       0.06021984
H       -3.20574614       2.20036795       0.21608457
C        1.79133854      -1.79133854       1.79133854
C        2.63702420      -1.20343698       2.72921075
C        3.43762023      -2.01006179       3.53634654
C        3.37743854      -3.40034233       3.41570558
C        2.51239090      -4.00370804       2.48802772
C        2.48693918      -5.51677023       2.36515306
N        1.18529430      -6.08886365       1.98360086
C        0.15203743      -5.86989251       3.01629962
C       -1.19009785      -6.52150816       2.61774689
N       -1.11676585      -7.97679466       2.36054174
C       -0.03578673      -8.21327969       1.37747146
C        1.31779073      -7.53404447       1.71041672
C       -0.90295379      -8.76968022       3.58241725
C       -2.00038157      -8.60725391       4.61436948
C       -3.34310818      -8.84350576       4.27851363
C       -4.35537005      -8.66349766       5.22324150
C       -4.03767099      -8.25540108       6.51787944
C       -2.70608052      -8.03222664       6.86253170
Br      -2.27185270      -7.47750896       8.61709992
C       -1.68979363      -8.20766814       5.92315546
C        1.73944320      -3.17904870       1.65554054
H        2.68217431      -0.12280694       2.83536997
H        4.10875127      -1.55614306       4.26120173
H        4.01178588      -4.01165659       4.05259823
H        2.82541720      -5.96527986       3.30853141
H        3.23263218      -5.77221222       1.60080710
H       -0.03641863      -4.79843340       3.14788527
H        0.48376123      -6.25684919       3.98857368
H       -1.94792987      -6.28886565       3.37294130
H       -1.55401120      -6.03788067       1.70067611
H        0.11940308      -9.29092024       1.23731262
H       -0.38032738      -7.83934049       0.40328489
H        1.77575737      -8.04472129       2.56664671
H        1.98700511      -7.68020364       0.85441860
H        0.06769713      -8.54781746       4.04173994
H       -0.87701683      -9.83611733       3.31979241
H       -3.60137890      -9.14663661       3.26486033
H       -5.39218326      -8.83407614       4.94443890
H       -4.83147718      -8.11160967       7.24524441
H       -0.65632591      -8.02257702       6.20495879
H        1.08003587      -3.62810407       0.91405872
C       -0.00445707       0.01189536      -1.78238275
H       -0.66409135       0.67374010      -2.43557963
H        0.65740317      -0.63156657      -2.45157240
C       -0.90989263      -0.90692880      -0.91072765
C        0.90977584       0.90977584      -0.90977584
C       -0.00465871       1.77757030       0.00794375
H       -0.66225468       2.44313916      -0.64384735
H        0.64322798       2.43503045       0.67728295
C       -1.78241447       0.00034974      -0.00472694
H       -2.45427497      -0.65498947       0.64260836
H       -2.43311707       0.67328779      -0.65473579
C       -0.91132561       0.90220522       0.91563759
C       -0.01476271      -0.02253852       1.78660255
H       -0.67934791      -0.69751639       2.42135241
H        0.63392994       0.61504881       2.47327442
C        0.01484550      -1.77751727      -0.01636693
H        0.67870853      -2.42144646      -0.68295456
H       -0.62264859      -2.45592969       0.64226336
C        1.78714474       0.01002794       0.00389507
H        2.44202412       0.67113390       0.66197326
H        2.45385902      -0.65136977      -0.64189061
C        0.91606151      -0.90478549       0.90901405
