194
Properties=species:S:1:pos:R:3 pbc="F F F"
C        1.79133854       1.79133854      -1.79133854
C        1.93840720       3.14298342      -1.48828130
C        2.74735037       3.94517542      -2.29150278
C        3.41963028       3.39071651      -3.38313966
C        3.29499839       2.02450966      -3.68461860
C        4.02047639       1.45687887      -4.89150721
N        4.44446607       0.05327821      -4.76001453
C        5.46208267      -0.12870203      -3.70484892
C        5.92843431      -1.59837450      -3.61909740
N        6.48651676      -2.14268474      -4.87673853
C        5.50187289      -1.90234026      -5.95543179
C        4.96580350      -0.45020633      -6.04665476
C        7.79872984      -1.57136358      -5.22177741
C        8.86658807      -1.82185392      -4.17650766
C        9.15881237      -3.12604865      -3.74614750
C       10.12199810      -3.35132700      -2.76069801
C       10.81238578      -2.27742284      -2.20064658
C       10.53760492      -0.98135863      -2.63243153
C        9.57486179      -0.74860688      -3.61477505
C        2.44776356       1.23602082      -2.89024806
H        1.42605215       3.57933845      -0.63496063
H        2.85568050       5.00336295      -2.06705262
H        4.04358405       4.03376499      -3.99869164
H        4.89042677       2.08547997      -5.12332174
H        3.32355373       1.54695663      -5.73514114
H        5.04888347       0.13599314      -2.72502344
H        6.32365942       0.52975392      -3.87577076
H        6.63433123      -1.71010868      -2.78965451
H        5.06824655      -2.22151487      -3.33781390
H        5.92229144      -2.19958718      -6.92493168
H        4.64988056      -2.57597640      -5.78839384
H        5.76308117       0.20505857      -6.41898564
H        4.16292088      -0.43431970      -6.79302618
H        7.72910365      -0.49591182      -5.42406270
H        8.15865032      -2.03179816      -6.15204075
H        8.61248463      -3.96909328      -4.16672669
H       10.32607743      -4.36507797      -2.42533233
H       11.55576583      -2.46049330      -1.43010435
H        9.36638962       0.26876514      -3.93605515
H        2.32010414       0.17959855      -3.12249597
C       11.24865644       0.12969238      -2.05487515
C       11.84416209       1.06019761      -1.57117168
Br      12.80704437       2.56474585      -0.78906407
C       -1.79133854      -1.79133854      -1.79133854
C       -3.16444759      -1.56253440      -1.84268993
C       -3.96698847      -2.36536813      -2.65167197
C       -3.39289277      -3.38152034      -3.41907333
C       -2.00671592      -3.60659592      -3.39081481
C       -1.41614574      -4.73378026      -4.21893647
N       -0.05045537      -4.49389858      -4.71340486
C        0.00943239      -3.37347571      -5.67418624
C        1.44101315      -3.17277908      -6.21739129
N        2.02133448      -4.36147467      -6.88043036
C        1.90263248      -5.50699025      -5.95060667
C        0.49304898      -5.71604844      -5.33925246
C        1.39241979      -4.66513072      -8.17643275
C        1.51811238      -3.54757556      -9.19177863
C        2.77568411      -3.02335457      -9.53124074
C        2.88597331      -1.97289186     -10.44445056
C        1.74223089      -1.44029711     -11.03754331
C        0.49178996      -1.96445458     -10.71601319
C        0.37384964      -3.01224790      -9.80263171
C       -1.21501620      -2.81558877      -2.54342747
H       -3.61693654      -0.76764789      -1.25576679
H       -5.04084016      -2.19939317      -2.68586273
H       -4.03635358      -3.99825374      -4.04143337
H       -2.08189373      -4.95322761      -5.06410713
H       -1.41584099      -5.61960369      -3.57020682
H       -0.28517199      -2.43651718      -5.18821088
H       -0.68902745      -3.53451865      -6.50563800
H        1.46255612      -2.29928000      -6.87715319
H        2.09791483      -2.90380726      -5.37865316
H        2.22865310      -6.43128329      -6.44500575
H        2.61586276      -5.34835619      -5.12980458
H       -0.18688827      -6.08127280      -6.11896431
H        0.56814930      -6.50649678      -4.58327988
H        0.33638855      -4.93558958      -8.05805350
H        1.88248410      -5.54391615      -8.61746086
H        3.67273088      -3.42269305      -9.06015587
H        3.86482821      -1.56588373     -10.68527626
H        1.83595392      -0.61905713     -11.74227368
H       -0.60915028      -3.40568751      -9.55637210
H       -0.14131333      -2.99054113      -2.49034420
C       -0.69121462      -1.41548125     -11.32652811
C       -1.68198095      -0.95571608     -11.83783434
Br      -3.28396631      -0.21231469     -12.66457329
C       -1.79133854       1.79133854       1.79133854
C       -1.29388550       2.27758250       2.99820392
C       -2.09852274       3.08607714       3.79942868
C       -3.38967740       3.41982088       3.38398817
C       -3.89302051       2.95226222       2.15884391
C       -5.30866356       3.31395339       1.74624552
N       -5.52111711       3.44151438       0.29512732
C       -4.75930896       4.56548733      -0.28656673
C       -5.03647259       4.71142129      -1.79873667
N       -6.46063719       4.90843145      -2.14849809
C       -7.24187358       3.82457316      -1.51148231
C       -6.95801360       3.60693268      -0.00269436
C       -6.97447194       6.23118912      -1.75651738
C       -6.24507659       7.38689166      -2.41072644
C       -6.12455024       7.46199870      -3.80763773
C       -5.42558410       8.51207177      -4.40628677
C       -4.84745263       9.50548812      -3.61733122
C       -4.97454299       9.44512913      -2.23099431
C       -5.66930498       8.39764065      -1.62591567
C       -3.08620877       2.10838832       1.37943535
H       -0.28692484       2.02997115       3.32345524
H       -1.71990655       3.45795650       4.74823302
H       -4.00219798       4.04937431       4.02446840
H       -5.60824917       4.24425423       2.24672507
H       -5.95268832       2.51542165       2.13754153
H       -3.68248278       4.39835995      -0.17094269
H       -4.99334556       5.50491424       0.23092430
H       -4.41182859       5.51139996      -2.20935147
H       -4.69051983       3.80038973      -2.30636396
H       -8.31607489       3.99343047      -1.66186942
H       -7.01630920       2.89039217      -2.04440338
H       -7.37217907       4.44843460       0.56651170
H       -7.49883499       2.70776262       0.31502974
H       -6.96427003       6.36070160      -0.66771710
H       -8.02668601       6.31364832      -2.06144142
H       -6.55913831       6.68131807      -4.43033834
H       -5.32610939       8.54844775      -5.48822535
H       -4.30003230      10.31569994      -4.09035534
H       -5.75366587       8.36030832      -0.54276429
H       -3.46783302       1.71695171       0.43741393
C       -4.37751322      10.46948954      -1.41377879
C       -3.87750079      11.32739139      -0.72936079
Br      -3.06902297      12.71454611       0.37728522
C        1.79133854      -1.79133854       1.79133854
C        2.20404585      -1.32736436       3.03826171
C        3.00493905      -2.13546229       3.84362722
C        3.37561537      -3.40980274       3.40806834
C        2.94707102      -3.89538390       2.16167173
C        3.38595576      -5.27588321       1.70702350
N        2.42135226      -5.98556394       0.85084262
C        1.16811139      -6.30602435       1.56409382
C        0.19240028      -7.09383671       0.66292022
N        0.73627112      -8.36008686       0.12421257
C        2.02811857      -8.05974126      -0.53289540
C        3.02097358      -7.22478183       0.31649651
C        0.89506654      -9.40383598       1.15024116
C       -0.40154352      -9.79089925       1.83188609
C       -1.51117103     -10.20974422       1.08033802
C       -2.71427752     -10.53657788       1.70906875
C       -2.82039605     -10.45902907       3.09697651
C       -1.71931817     -10.05735479       3.85064120
C       -0.51495181      -9.72692010       3.22906168
C        2.17233208      -3.05709725       1.34460311
H        1.91168673      -0.34077591       3.38788859
H        3.34037343      -1.77343832       4.81228432
H        4.00277209      -4.02341446       4.04985414
H        3.62306362      -5.89105717       2.58510768
H        4.32264380      -5.12991852       1.15308918
H        0.65506345      -5.38668462       1.86815197
H        1.37484842      -6.87363096       2.48070472
H       -0.74702575      -7.26108741       1.19981541
H       -0.08431103      -6.45909845      -0.19024183
H        2.51382531      -8.98969127      -0.85588064
H        1.81360351      -7.50653626      -1.45784177
H        3.40651755      -7.84653021       1.13407761
H        3.87507669      -6.96739465      -0.32084398
H        1.63488094      -9.11578334       1.90659025
H        1.28401184     -10.31651685       0.67836423
H       -1.44168075     -10.25727697      -0.00547818
H       -3.57022822     -10.84335064       1.11320936
H       -3.76165286     -10.70899576       3.57803399
H        0.33304276      -9.40822028       3.82994686
H        1.85008189      -3.40722315       0.36489362
C       -1.82661191      -9.97553056       5.28430533
C       -1.91647042      -9.90700276       6.48499904
Br      -2.06176404      -9.79619911       8.42641922
C       -0.00445707       0.01189536      -1.78238275
H       -0.66409135       0.67374010      -2.43557963
H        0.65740317      -0.63156657      -2.45157240
C       -0.90989263      -0.90692880      -0.91072765
C        0.90977584       0.90977584      -0.90977584
C       -0.00465871       1.77757030       0.00794375
H       -0.66225468       2.44313916      -0.64384735
H        0.64322798       2.43503045       0.67728295
C       -1.78241447       0.00034974      -0.00472694
H       -2.45427497      -0.65498947       0.64260836
H       -2.43311707       0.67328779      -0.65473579
C       -0.91132561       0.90220522       0.91563759
C       -0.01476271      -0.02253852       1.78660255
H       -0.67934791      -0.69751639       2.42135241
H        0.63392994       0.61504881       2.47327442
C        0.01484550      -1.77751727      -0.01636693
H        0.67870853      -2.42144646      -0.68295456
H       -0.62264859      -2.45592969       0.64226336
C        1.78714474       0.01002794       0.00389507
H        2.44202412       0.67113390       0.66197326
H        2.45385902      -0.65136977      -0.64189061
C        0.91606151      -0.90478549       0.90901405
