173
Properties=species:S:1:pos:R:3 pbc="F F F"
C        0.00000000       0.00000000       0.00000000
C        0.88240624       0.88240624      -0.88240624
C        2.15203085       0.44627980      -1.24566271
C        2.95070368       1.24996903      -2.06076278
C        2.47047609       2.48564100      -2.50026591
O        3.24825839       3.26661014      -3.31002771
C        1.19999146       2.94940179      -2.13462913
C        0.40450334       2.11754504      -1.32060072
C        0.68209066       4.29395487      -2.63668424
H        1.54330005       4.97497009      -2.69981850
N       -0.24614522       4.89824834      -1.66810421
C       -0.68102710       6.25870197      -2.05211445
H        0.22230498       6.88323286      -2.07038668
C       -1.34337249       6.27791274      -3.44633929
H       -2.29292224       5.72778556      -3.42997884
C       -1.63922904       7.69386548      -3.94860886
C       -0.42863904       5.55461942      -4.42833601
O       -0.14990311       6.01294631      -5.53848416
C        0.04462126       4.17242243      -4.03098267
H        0.81574359       3.87048535      -4.75304640
C       -1.12462045       3.19307128      -4.14816495
C       -1.62426561       6.78289728      -0.96881632
C       -2.58225635       5.93219813      -0.38153395
C       -3.42177996       6.39327714       0.63104018
Br      -4.65945597       5.21193148       1.43435262
C       -3.34677229       7.71494815       1.06227665
C       -2.42319451       8.58049791       0.47497401
C       -1.57130192       8.11317860      -0.52791674
O       -0.66883799       8.96381774      -1.10020875
H        2.52573165      -0.51504416      -0.90564982
H        3.93733162       0.89636310      -2.34267475
H        4.08512105       2.80717312      -3.48610705
H       -0.59622053       2.43483218      -1.03590336
H        0.24146512       4.97398352      -0.77239357
H       -0.73172698       8.30773993      -3.96536746
H       -2.38590941       8.19491197      -3.32522462
H       -2.03890389       7.67225275      -4.96925929
H       -1.88468460       3.36152267      -3.37856514
H       -0.78108613       2.15757541      -4.06402511
H       -1.61866734       3.29641004      -5.12062819
H       -2.65426801       4.89620281      -0.70658876
H       -3.99959160       8.07730218       1.85257170
H       -2.37876181       9.61052351       0.81660607
H       -0.80689495       9.85841818      -0.74410329
C       -0.88240624      -0.88240624      -0.88240624
C       -1.60046838      -1.92919342      -0.31431157
C       -2.41391736      -2.72598194      -1.12153618
C       -2.49615197      -2.46844675      -2.49178428
O       -3.30391362      -3.24105626      -3.27992636
C       -1.77051820      -1.42759671      -3.08590746
C       -0.96402003      -0.62721265      -2.25141642
C       -1.88383374      -1.14740908      -4.58148696
H       -2.01546020      -2.11468812      -5.08794032
N       -0.63421650      -0.57710492      -5.10888592
C       -0.65075128      -0.40169140      -6.57734664
H       -0.75955377      -1.40459438      -7.01177636
C       -1.82839267       0.48431043      -7.03679729
H       -1.69711691       1.51472718      -6.68245242
C       -1.97951793       0.53596866      -8.55969603
C       -3.10970687      -0.04339651      -6.40121301
O       -4.15000216      -0.20977268      -7.04175252
C       -3.09320781      -0.25298358      -4.90183496
H       -4.01546401      -0.78775278      -4.63605856
C       -3.11854573       1.11023192      -4.20830196
C        0.69716820       0.18010076      -7.00471696
C        1.32061896       1.18196600      -6.23406068
C        2.56557012       1.69210896      -6.59813608
Br       3.39845702       2.99706137      -5.51364127
C        3.20451750       1.23856768      -7.74898439
C        2.59165814       0.26620335      -8.54019088
C        1.35198243      -0.25612231      -8.16565353
O        0.75554794      -1.20766515      -8.94307129
H       -1.53833942      -2.12928800       0.75129012
H       -2.97427730      -3.53615188      -0.66594029
H       -3.74839333      -3.90340110      -2.72660679
H       -0.40447638       0.20422283      -2.67426145
H        0.12440551      -1.22580332      -4.88644439
H       -2.08979386      -0.46876240      -8.98282415
H       -1.12042953       1.02004985      -9.03384750
H       -2.86768580       1.11129346      -8.84621581
H       -2.17801531       1.65618663      -4.33357453
H       -3.30778086       1.00315455      -3.13588807
H       -3.91601240       1.73829303      -4.62065152
H        0.83519930       1.54771493      -5.33143779
H        4.17608620       1.63384856      -8.03507364
H        3.09812867      -0.07487832      -9.43840597
H        1.29259598      -1.34601438      -9.74220812
C       -0.88240624       0.88240624       0.88240624
C       -2.02313636       1.47223413       0.34860288
C       -2.83256117       2.26843430       1.16044002
C       -2.48800240       2.46945807       2.49892254
O       -3.28885374       3.23866898       3.29737352
C       -1.33600712       1.89554007       3.05247518
C       -0.53836217       1.08530295       2.21898398
C       -0.98169737       2.11003398       4.52099843
H       -1.29991006       3.12765073       4.79052786
N        0.47494197       2.07028434       4.72486495
C        0.87597495       2.39479482       6.11096946
H        0.54916221       3.42647580       6.29861092
C        0.20964770       1.45347182       7.13705541
H        0.58559626       0.42883214       7.02160627
C        0.46016601       1.87604558       8.58736572
C       -1.28806082       1.41071187       6.85554370
O       -2.13511736       1.52186303       7.74454698
C       -1.70802355       1.10704528       5.43295754
H       -2.79085751       1.28118064       5.36723719
C       -1.44672157      -0.37175374       5.14164795
C        2.40162490       2.33526261       6.19381028
C        3.11505781       1.31809519       5.52843835
C        4.50764817       1.27770474       5.57040043
Br       5.43622632      -0.06894157       4.62329077
C        5.21932505       2.22930655       6.29591771
C        4.53035914       3.22901118       6.98367734
C        3.13597473       3.27830694       6.92746121
O        2.46553809       4.25845775       7.60226884
H       -2.29268916       1.31529314      -0.69164500
H       -3.72351587       2.71852121       0.73433239
H       -4.04888110       3.54980983       2.77971029
H        0.35094181       0.60475112       2.62070570
H        0.89617396       2.77214159       4.11187457
H        0.12864949       2.90527464       8.76475526
H        1.51935936       1.80199833       8.85158821
H       -0.08788106       1.23078540       9.28394170
H       -0.37774966      -0.59835383       5.07600738
H       -1.91601025      -0.67694527       4.20144940
H       -1.86393954      -1.00111672       5.93554807
H        2.57453429       0.56643240       4.95662545
H        6.30564657       2.20102400       6.32976145
H        5.09719095       3.96186314       7.55048343
H        3.10351057       4.78110644       8.11803065
C        0.88240624      -0.88240624       0.88240624
C        1.73917237      -0.29666778       1.80813321
C        2.53537350      -1.10608640       2.61997559
C        2.46832606      -2.49532387       2.49273308
O        3.23876802      -3.28821318       3.29791504
C        1.62205907      -3.10479215       1.55717116
C        0.81755819      -2.27004704       0.75504387
C        1.54682364      -4.62435621       1.44154993
H        2.55252666      -5.01962298       1.64593900
N        1.21842999      -5.03457125       0.06720609
C        1.25426802      -6.50057651      -0.12505521
H        2.28749108      -6.81741564       0.07101778
C        0.30306160      -7.23082648       0.84699144
H       -0.74290833      -6.99283496       0.61491553
C        0.45138303      -8.75408188       0.79778038
C        0.57019441      -6.72425078       2.25987120
O        0.69527602      -7.48120972       3.22504162
C        0.56347945      -5.22362815       2.46091875
H        0.93530470      -5.02786912       3.47610153
C       -0.87732585      -4.71659537       2.37734626
C        0.91255916      -6.79995216      -1.58506333
C       -0.10348204      -6.07923522      -2.24427745
C       -0.39676243      -6.32225367      -3.58503424
Br      -1.72912524      -5.30129452      -4.45404640
C        0.29299742      -7.30408426      -4.29118248
C        1.28433799      -8.04714618      -3.64915478
C        1.58874117      -7.79157984      -2.31052760
O        2.55971748      -8.52135415      -1.68588312
H        1.79090595       0.78341776       1.90884911
H        3.19562216      -0.63778419       3.34296312
H        3.75437107      -2.72584640       3.89818375
H        0.13164276      -2.70896716       0.03390510
H        1.91823523      -4.62661101      -0.55700403
H        1.48459973      -9.05980765       0.99697304
H        0.15125082      -9.15713153      -0.17415517
H       -0.18339399      -9.23432732       1.55167482
H       -1.27795562      -4.77319007       1.36016876
H       -0.94928386      -3.67740646       2.71239178
H       -1.53454656      -5.31398792       3.01892953
H       -0.65235471      -5.30817911      -1.70730084
H        0.06718675      -7.49530962      -5.33735749
H        1.81099070      -8.81394320      -4.20977828
H        2.87696944      -9.21182005      -2.29316297
