158
Properties=species:S:1:pos:R:3 pbc="F F F"
O        3.17383466       3.37074705      -7.43508600
C        3.22842084       4.09138005      -6.44307294
C        4.42555457       4.01547989      -5.48599483
O        4.12425714       4.32086626      -4.12883874
C        3.38072884       3.41396014      -3.42293952
C        2.98110387       2.15070582      -3.86487685
C        2.18414548       1.34031251      -3.04960065
C        1.79116473       1.79116473      -1.79116473
C        2.19674702       3.04221639      -1.33531784
C        2.99294601       3.84853367      -2.15157313
N        2.31095303       5.05754774      -6.06646961
C        1.08673586       5.37613155      -6.68359383
C        0.58630682       4.71472868      -7.80321158
C       -0.64538075       5.08457893      -8.34979851
C       -1.38614006       6.12493392      -7.78577534
C       -0.90391048       6.80958513      -6.66183827
C       -1.66122311       7.94017643      -6.02395478
C        0.33453168       6.41779964      -6.11936204
H        5.14697962       4.76557483      -5.83012648
H        4.92270190       3.04252491      -5.57050284
H        3.26134211       1.75884052      -4.83853118
H        1.87279672       0.36257706      -3.40964463
H        1.89764294       3.40012579      -0.35404547
H        3.30689942       4.82609058      -1.79417591
H        2.53346865       5.55642276      -5.21059328
H        1.12400399       3.89771829      -8.27330523
H       -1.01639308       4.54807068      -9.21999874
H       -1.11838350       8.35477115      -5.16733390
H       -2.63217460       7.59250236      -5.65695037
H       -1.80705665       8.75532758      -6.73988653
H        0.71430158       6.94190161      -5.24448248
C       -2.64577967       6.45561701      -8.40023179
C       -3.70072785       6.73256410      -8.91483907
Br      -5.40648983       7.18036411      -9.74691552
O       -3.51869253      -7.42348416      -3.03749101
C       -4.20215313      -6.41031429      -3.15040642
C       -4.05283413      -5.49853403      -4.37566113
O       -4.32079557      -4.12222672      -4.13093984
C       -3.41538905      -3.42177347      -3.38046598
C       -2.18240855      -3.89174684      -2.92253114
C       -1.37139400      -3.07694353      -2.12572112
C       -1.79116473      -1.79116473      -1.79116473
C       -3.01127298      -1.30791527      -2.25509301
C       -3.81827584      -2.12380709      -3.05096988
N       -5.18492466      -5.96978243      -2.28026331
C       -5.56573231      -6.53290982      -1.04781911
C       -4.96085139      -7.65604157      -0.48735412
C       -5.39066376      -8.14673173       0.74839880
C       -6.43508075      -7.52265101       1.43316256
C       -7.06364417      -6.39379093       0.88992218
C       -8.19617982      -5.69232848       1.58560020
C       -6.61183819      -5.90817863      -0.35167654
H       -4.78977598      -5.84214366      -5.11076131
H       -3.06725030      -5.63292461      -4.83555474
H       -1.81544156      -4.88717468      -3.15609756
H       -0.41778435      -3.45859468      -1.76863938
H       -3.34469285      -0.30536329      -2.00175805
H       -4.77171167      -1.74489617      -3.41055807
H       -5.64597762      -5.10588113      -2.54862594
H       -4.14307503      -8.17173655      -0.98021593
H       -4.89750961      -9.02104110       1.16687436
H       -8.56226135      -4.84165416       1.00019396
H       -7.86877757      -5.30367355       2.55517299
H       -9.04017280      -6.37496013       1.72697547
H       -7.09214359      -5.02991682      -0.77862526
C       -6.82907107      -8.08147545       2.70047739
C       -7.15903796      -8.54949092       3.76185356
Br      -7.69256651      -9.30623235       5.47800905
O       -2.35777398       4.46514582       7.15674790
C       -2.79811633       4.87703908       6.08771842
C       -4.10338343       4.31349746       5.51014839
O       -4.17432708       4.31106139       4.08857367
C       -3.38075971       3.42305187       3.41381693
C       -2.58584770       2.42639656       3.98444228
C       -1.78913174       1.61200265       3.17292426
C       -1.79116473       1.79116473       1.79116473
C       -2.59136600       2.77147912       1.21143613
C       -3.38610841       3.58243344       2.02451096
N       -2.25921848       5.87818885       5.29756306
C       -1.06051552       6.58816854       5.49777718
C       -0.18865758       6.35602204       6.55956746
C        0.98944512       7.09762376       6.68081804
C        1.30413128       8.08423494       5.74446555
C        0.44254538       8.34091286       4.66914544
C        0.73442097       9.39692324       3.64040582
C       -0.73540750       7.57829424       4.55799161
H       -4.90902290       4.96411584       5.86954220
H       -4.30314212       3.31570056       5.91688696
H       -2.55062946       2.25199060       5.05609375
H       -1.16829114       0.84569381       3.63103346
H       -2.60151502       2.91569074       0.13460844
H       -4.00882311       4.34873029       1.56961252
H       -2.77287129       6.08186613       4.44574727
H       -0.38868768       5.59722301       7.30911682
H        1.65596871       6.89235154       7.51529351
H       -0.05993334       9.45565541       2.88813280
H        1.66658833       9.17106828       3.11279818
H        0.80633052      10.38189113       4.11259686
H       -1.40793289       7.76885791       3.72389486
C        2.53259450       8.81215361       5.93051001
C        3.56143244       9.42178550       6.08632225
Br       5.22497637      10.40750871       6.33825746
O        3.96122073      -7.33728667       2.68116031
C        4.52446157      -6.28209484       2.95631742
C        4.17037002      -5.51769069       4.23896858
O        4.31810137      -4.10476181       4.15109895
C        3.41926771      -3.41815270       3.38020809
C        2.28825021      -3.95093453       2.75750179
C        1.47553655      -3.13761527       1.96090683
C        1.79116473      -1.79116473       1.79116473
C        2.90752511      -1.24703381       2.41972233
C        3.71646245      -2.06170690       3.21488346
N        5.53340168      -5.66621702       2.23535169
C        6.08190290      -6.06315615       1.00140219
C        5.64906937      -7.17437802       0.28079970
C        6.23903075      -7.49470232      -0.94473638
C        7.27318501      -6.71022140      -1.45883721
C        7.73048385      -5.58938092      -0.75235185
C        8.84503906      -4.71899722      -1.26112819
C        7.11871539      -5.27671490       0.47626307
H        4.86738602      -5.86485413       5.01044078
H        3.16535461      -5.78877872       4.58159632
H        2.00465946      -4.99462070       2.85943363
H        0.60290734      -3.56737454       1.47473654
H        3.15898877      -0.19737674       2.29544869
H        4.58896717      -1.63493336       3.70326538
H        5.87719937      -4.79527653       2.62800880
H        4.84608797      -7.81099413       0.63794541
H        5.87837272      -8.36361647      -1.49031284
H        9.06681368      -3.90225506      -0.56534719
H        8.57074664      -4.26546247      -2.21893097
H        9.76365758      -5.30271595      -1.37821606
H        7.46546083      -4.40593723       1.02928761
C        7.83752784      -7.09812538      -2.72558409
C        8.31016496      -7.42299497      -3.78648461
Br       9.07437921      -7.94828161      -5.50187101
C       -0.00445707       0.01189536      -1.78238275
H       -0.66409135       0.67374010      -2.43557963
H        0.65740317      -0.63156657      -2.45157240
C       -0.90989263      -0.90692880      -0.91072765
C        0.90977584       0.90977584      -0.90977584
C       -0.00465871       1.77757030       0.00794375
H       -0.66225468       2.44313916      -0.64384735
H        0.64322798       2.43503045       0.67728295
C       -1.78241447       0.00034974      -0.00472694
H       -2.45427497      -0.65498947       0.64260836
H       -2.43311707       0.67328779      -0.65473579
C       -0.91132561       0.90220522       0.91563759
C       -0.01476271      -0.02253852       1.78660255
H       -0.67934791      -0.69751639       2.42135241
H        0.63392994       0.61504881       2.47327442
C        0.01484550      -1.77751727      -0.01636693
H        0.67870853      -2.42144646      -0.68295456
H       -0.62264859      -2.45592969       0.64226336
C        1.78714474       0.01002794       0.00389507
H        2.44202412       0.67113390       0.66197326
H        2.45385902      -0.65136977      -0.64189061
C        0.91606151      -0.90478549       0.90901405
