137
Properties=species:S:1:pos:R:3 pbc="F F F"
C        0.00000000       0.00000000       0.00000000
C        0.88063963       0.88063963      -0.88063963
C        0.69486658       0.88553128      -2.26187928
C        1.51645321       1.67490309      -3.07462969
C        2.52806510       2.44917236      -2.50494218
C        2.68771895       2.45638528      -1.11515827
C        1.86930500       1.67212360      -0.30186901
O        3.45371347       3.19599542      -3.18284211
C        3.47875464       3.10599521      -4.60282034
C        3.96207937       1.77008370      -5.19212851
O        3.69563621       1.47090967      -6.35268013
N        4.69333392       1.02020372      -4.28658272
C        5.21369007      -0.28299315      -4.44345772
C        5.16772421      -0.96465342      -5.66507792
C        5.67993655      -2.26072753      -5.78720432
C        6.24258016      -2.88607814      -4.68258120
C        6.30138905      -2.22760900      -3.45814849
C        5.79060522      -0.92365613      -3.32180198
C        5.86520181      -0.26731731      -1.96840911
H       -0.07660080       0.27244352      -2.71879452
H        1.34211121       1.64288351      -4.14690004
H        3.46689468       3.06608405      -0.66260588
H        2.01690927       1.67783441       0.77526169
H        4.18536258       3.86750848      -4.95335511
H        2.50088977       3.36682606      -5.02317556
H        4.77669318       1.43672841      -3.36754495
H        4.74240209      -0.51363818      -6.55467382
H        5.62950045      -2.76446192      -6.74788358
H        6.74239237      -2.73035046      -2.59967239
H        4.85964285      -0.03814802      -1.60165819
H        6.45757737       0.65200225      -2.02228348
H        6.34110618      -0.91986898      -1.22833928
C        6.76674885      -4.22169872      -4.80491221
C        7.20574013      -5.34028094      -4.90736442
Br       7.91555189      -7.14893380      -5.07302098
C       -0.88063963      -0.88063963      -0.88063963
C       -0.33204395      -1.51849307      -1.99174012
C       -1.14257545      -2.30859266      -2.81481788
C       -2.50141094      -2.45033056      -2.53043813
C       -3.03499995      -1.82670128      -1.39756127
C       -2.22950561      -1.03988296      -0.57390904
O       -3.42186964      -3.11759739      -3.29308397
C       -3.00412254      -3.63034805      -4.55309960
C       -2.69209585      -2.59006308      -5.64213266
O       -2.00843037      -2.89576913      -6.61502650
N       -3.26297905      -1.35593290      -5.38120842
C       -3.11889856      -0.15144565      -6.10381043
C       -2.44710164      -0.09080246      -7.33024461
C       -2.30882221       1.11986180      -8.01745294
C       -2.84303781       2.28273097      -7.47877638
C       -3.51694377       2.24689312      -6.26187788
C       -3.66378977       1.03582384      -5.56078513
C       -4.38686931       1.06054194      -4.23996624
H        0.72008869      -1.40035410      -2.23437182
H       -0.67565856      -2.78140720      -3.67482900
H       -4.09111795      -1.94157507      -1.16289159
H       -2.66367989      -0.54990469       0.29410257
H       -3.83450215      -4.23447823      -4.93724580
H       -2.15208385      -4.30850815      -4.43029939
H       -3.76991329      -1.30475664      -4.50629662
H       -2.01870658      -0.97410221      -7.79062894
H       -1.78180404       1.13565009      -8.96676814
H       -3.92829554       3.16612220      -5.84954096
H       -3.72017462       0.73299486      -3.43597325
H       -5.26904589       0.41289512      -4.27571233
H       -4.73180134       2.06896062      -3.98673576
C       -2.69836907       3.53077898      -8.18237224
C       -2.57720900       4.57601918      -8.77163378
Br      -2.38130342       6.26608418      -9.72441984
C       -0.88063963       0.88063963       0.88063963
C       -1.31069646       2.12040356       0.41117712
C       -2.09966760       2.94064678       1.22567161
C       -2.44777709       2.52338689       2.51101566
C       -2.03227937       1.26573360       2.96124953
C       -1.24725814       0.44477297       2.15126650
O       -3.13691449       3.25562092       3.44001559
C       -3.44365198       4.61088454       3.13303367
C       -2.25397925       5.58453347       3.08577887
O       -2.35521295       6.66061801       2.50339505
N       -1.14220440       5.10239018       3.75552578
C        0.14551586       5.67463787       3.84503263
C        0.43259897       6.95165038       3.34909730
C        1.72160147       7.48757314       3.44044166
C        2.73614810       6.74528082       4.02995050
C        2.47431532       5.47420706       4.53203680
C        1.18221559       4.92368082       4.44728584
C        0.96176680       3.53678106       4.99127936
H       -1.03032424       2.46449861      -0.58018561
H       -2.40648157       3.90238030       0.82303289
H       -2.30904039       0.92860186       3.95794236
H       -0.92021441      -0.52331598       2.52258357
H       -4.10225585       4.97244738       3.93152296
H       -4.01533023       4.67526039       2.20030076
H       -1.25757191       4.17599910       4.14739553
H       -0.32924781       7.56851580       2.88567412
H        1.91404182       8.48087530       3.04608862
H        3.27925662       4.90196409       4.98900683
H        0.63346606       2.86360011       4.19301896
H        0.21372088       3.55489299       5.79069099
H        1.88136560       3.11730272       5.41363937
C        4.06467471       7.29323489       4.12140215
C        5.17731574       7.75214642       4.19799291
Br       6.97636218       8.49416756       4.32183369
C        0.88063963      -0.88063963       0.88063963
C        1.44616610      -2.04097682       0.35513422
C        2.23577382      -2.86312990       1.16708227
C        2.44919970      -2.52813074       2.50484919
C        1.89812880      -1.34731921       3.01381449
C        1.11204268      -0.52452469       2.20673024
O        3.12360584      -3.27990272       3.42904244
C        3.56374415      -4.57783112       3.04599492
C        2.46563257      -5.63212450       2.82653451
O        2.69951209      -6.64556767       2.17414625
N        1.27001093      -5.29313263       3.43697680
C        0.03089133      -5.96734128       3.37592203
C       -0.11108146      -7.21719012       2.76204005
C       -1.35461550      -7.85555363       2.70547521
C       -2.46899326      -7.24402033       3.26405615
C       -2.35208929      -6.00250609       3.88151174
C       -1.10718659      -5.34994006       3.94599759
C       -1.04416644      -3.99995098       4.61050907
H        1.27158759      -2.32239052      -0.67934088
H        2.65077940      -3.76211606       0.71899930
H        2.06928767      -1.07354029       4.05275665
H        0.67879908       0.38182096       2.62250388
H        4.18714735      -4.95283034       3.86624849
H        4.20824167      -4.52116774       2.16148197
H        1.27825114      -4.39618190       3.90653350
H        0.73222401      -7.73377506       2.31743866
H       -1.43372424      -8.82466342       2.22198292
H       -3.23403852      -5.53301396       4.31273886
H       -0.71267549      -3.24007108       3.89575742
H       -0.36032527      -4.02693198       5.46525640
H       -2.02478985      -3.68813987       4.98622646
C       -3.75081536      -7.89736166       3.20341604
C       -4.82434136      -8.44453502       3.15262994
Br      -6.56014212      -9.32926807       3.07051312
