129
Properties=species:S:1:pos:R:3 pbc="F F F"
C        0.00000000       0.00000000       0.00000000
O        4.61484361       3.59721463      -6.58460350
C        4.54221171       3.48506019      -5.36357869
C        3.22645018       3.17060918      -4.65241589
O        3.39430427       3.20549331      -3.23457219
C        2.50614667       2.45739754      -2.51452240
C        1.20969739       2.13634948      -2.92177959
C        0.39838266       1.34077590      -2.10615563
C        0.88188182       0.88188182      -0.88188182
C        2.16264913       1.22363061      -0.45648861
C        2.96929191       2.01927168      -1.27209052
N        5.63439514       3.58884556      -4.53364836
C        6.95496641       3.84769737      -5.04983347
C        7.98699483       3.89499709      -3.95442327
C        8.76595813       5.04554208      -3.76310745
C        9.74611470       5.08286671      -2.76842725
C        9.95148692       3.96863663      -1.95716800
Br      11.28624225       4.01478042      -0.62019242
C        9.18413696       2.81875510      -2.12969889
C        8.20757416       2.78171776      -3.12846346
H        2.92529619       2.17426226      -4.99702112
H        2.49158842       3.92549872      -4.94892198
H        0.80222148       2.49612886      -3.86218734
H       -0.60660275       1.08661845      -2.43440907
H        2.54364256       0.87657712       0.50002566
H        3.97041630       2.28503425      -0.94213303
H        5.46552071       3.60701532      -3.53294328
H        6.91875743       4.79286693      -5.60499397
H        7.21140980       3.05991755      -5.76925835
H        8.62010144       5.92072839      -4.39304175
H       10.34592484       5.98102913      -2.63905457
H        9.34268346       1.94727600      -1.50063511
H        7.62111873       1.87370511      -3.26452309
O       -5.69715333      -5.91643910      -3.18306932
C       -4.67648327      -5.28068608      -3.43368124
C       -4.35107118      -3.95813059      -2.74027347
O       -3.17059969      -3.37267631      -3.29109377
C       -2.48849338      -2.52542066      -2.46415256
C       -3.05781350      -1.78084426      -1.42916871
C       -2.25090197      -0.96250198      -0.63191024
C       -0.88188182      -0.88188182      -0.88188182
C       -0.31312389      -1.59829387      -1.93135059
C       -1.12149640      -2.41282793      -2.72632978
N       -3.71984892      -5.71559435      -4.32144579
C       -3.85831917      -6.96155007      -5.03262802
C       -2.67740561      -7.23230062      -5.92670896
C       -2.85826212      -7.41022630      -7.30611923
C       -1.76981393      -7.69260021      -8.13499452
C       -0.49232948      -7.79678320      -7.58817887
Br       0.97804992      -8.19155884      -8.70770616
C       -0.29302972      -7.61862804      -6.22093319
C       -1.38381168      -7.34111637      -5.39282733
H       -4.22358768      -4.19552028      -1.67747162
H       -5.19622209      -3.27921514      -2.89057189
H       -4.12421691      -1.81135193      -1.22496884
H       -2.69972850      -0.39324394       0.17854768
H        0.75173180      -1.53437522      -2.13755060
H       -0.67830085      -2.97452202      -3.54476071
H       -2.97232122      -5.07212114      -4.56103695
H       -4.79178060      -6.91808410      -5.60675363
H       -3.96583091      -7.77291797      -4.30183682
H       -3.85101427      -7.33723991      -7.74561740
H       -1.92970565      -7.83481136      -9.20149153
H        0.70108634      -7.70116102      -5.79051989
H       -1.22025949      -7.21609649      -4.32299095
O       -4.75638918       3.50901694       6.53125562
C       -4.63029351       3.44968466       5.31087242
C       -3.29765422       3.10525205       4.64656898
O       -3.39528573       3.21324654       3.22583750
C       -2.50878842       2.45712091       2.51215728
C       -1.24955741       2.05567725       2.96259180
C       -0.43731242       1.26026668       2.14773510
C       -0.88188182       0.88188182       0.88188182
C       -2.12364202       1.30405831       0.41506802
C       -2.93122126       2.09931235       1.23012050
N       -5.67534231       3.64392377       4.43762298
C       -7.00594845       3.94206531       4.90448349
C       -7.98079029       4.08923923       3.76638566
C       -8.69598540       5.28351660       3.59510565
C       -9.62437707       5.41361509       2.55941650
C       -9.84140965       4.34899242       1.68688948
Br     -11.10673294       4.52067769       0.29380445
C       -9.13686746       3.15679866       1.83892482
C       -8.21224502       3.02697226       2.87853810
H       -3.05950777       2.08079171       4.95628009
H       -2.54402814       3.80948055       5.01250043
H       -0.87173015       2.35186163       3.93694590
H        0.53797494       0.94322312       2.50917659
H       -2.47368580       1.02003649      -0.57352828
H       -3.90204122       2.42782772       0.86771465
H       -5.45783803       3.69987711       3.44776417
H       -6.95314019       4.85790491       5.50557322
H       -7.33262885       3.13533851       5.57261834
H       -8.54058528       6.12081639       4.27246991
H      -10.17538707       6.34460090       2.44602057
H       -9.30480095       2.32376873       1.16202488
H       -7.67533435       2.08649381       2.99751876
O        4.95575463      -6.43908906       3.40181806
C        4.20419098      -5.50785944       3.67880017
C        3.98987307      -4.32655650       2.73304568
O        3.16077230      -3.33425296       3.33934451
C        2.47388894      -2.52829129       2.47588638
C        2.88031505      -2.20869323       1.17881819
C        2.07850958      -1.38901033       0.37779428
C        0.88188182      -0.88188182       0.88188182
C        0.48599412      -1.17215196       2.18462227
C        1.28935151      -1.98915621       2.98214640
N        3.46021788      -5.46167408       4.83499710
C        3.52061001      -6.51575400       5.81613324
C        2.60323975      -6.25242504       6.98075039
C        3.11586629      -6.17479240       8.28394897
C        2.26464872      -5.96181585       9.37094409
C        0.89422367      -5.82316984       9.15989805
Br      -0.25857803      -5.54798299      10.63181013
C        0.36772405      -5.89289618       7.87197072
C        1.22030367      -6.11090968       6.78654203
H        3.52611819      -4.74056629       1.82989509
H        4.96824469      -3.89178613       2.50597830
H        3.81670285      -2.57548624       0.76834858
H        2.39664727      -1.15250196      -0.63472447
H       -0.44126162      -0.77405070       2.58740493
H        0.98030735      -2.21843100       3.99884523
H        2.96321541      -4.60102716       5.04123673
H        4.56324462      -6.61042095       6.14295276
H        3.24632360      -7.46171556       5.33254654
H        4.18316475      -6.28690361       8.46380323
H        2.67879617      -5.91169142      10.37552094
H       -0.70037951      -5.78741565       7.70355842
H        0.79813519      -6.17684507       5.78436666
