185
Properties=species:S:1:pos:R:3 pbc="F F F"
C        0.00000000       0.00000000       0.00000000
C        0.88157965       0.88157965      -0.88157965
C        1.18647646       2.17996200      -0.47775638
C        1.98551799       2.99427169      -1.28783351
C        2.47554165       2.50930247      -2.50212608
C        2.16181812       1.20522424      -2.89675669
C        1.36908156       0.38765823      -2.08819806
O        3.23972259       3.20912091      -3.39529170
C        3.83866329       4.40666296      -2.92065104
C        4.74748930       5.05729086      -3.96930612
O        4.57304626       6.24221165      -4.27550295
N        5.79310797       4.31066330      -4.51162781
C        6.28435848       3.06969069      -3.90090629
C        7.14948472       2.23079174      -4.85795841
N        8.23852718       2.97765974      -5.52095906
C        7.62980390       4.12392147      -6.23226531
C        6.74627169       5.03637051      -5.35768403
C        9.28637544       3.43438875      -4.59122101
C        9.98738806       2.30778767      -3.86164222
C       10.69824986       1.32848778      -4.57104564
C       11.33851449       0.28724351      -3.89627826
C       11.27606960       0.21291082      -2.50498304
C       10.57318411       1.18264775      -1.79422615
C        9.93294358       2.22715772      -2.46134686
H        0.80076079       2.57210863       0.46012157
H        2.18803031       4.00450464      -0.94833826
H        2.53692525       0.82239630      -3.84338422
H        1.13530695      -0.62287967      -2.41154898
H        4.44086633       4.22315028      -2.02164961
H        3.05481480       5.13930764      -2.69011057
H        5.45242569       2.45143210      -3.56172969
H        6.85303152       3.35312256      -3.00808932
H        7.53673979       1.35115061      -4.33225223
H        6.49861164       1.82352058      -5.64453309
H        8.40754841       4.72278422      -6.72248281
H        7.01267871       3.72306077      -7.04758151
H        7.36971442       5.64527310      -4.69142978
H        6.20046387       5.73151703      -6.00670491
H        8.89645321       4.15205075      -3.86012762
H       10.05857008       3.97272298      -5.15632712
H       10.74217434       1.37203187      -5.65798477
H       11.88265254      -0.46805821      -4.45760356
H       11.77527266      -0.60188648      -1.98794315
H        9.38840389       2.97722603      -1.89293997
C       10.50190779       1.10642681      -0.35801235
C       10.44221387       1.04259177       0.84481670
Br      10.34569386       0.93937592       2.78968954
C       -0.88157965      -0.88157965      -0.88157965
C       -1.63798159      -1.90045840      -0.30575484
C       -2.43905474      -2.71693719      -1.11163126
C       -2.47954548      -2.51474224      -2.49268248
C       -1.71532174      -1.48983735      -3.05863995
C       -0.91880591      -0.66937018      -2.25676175
O       -3.19588511      -3.25715887      -3.39109122
C       -4.21156611      -4.09567557      -2.85873559
C       -5.01297770      -4.80586557      -3.95524301
O       -5.13173460      -6.03594150      -3.92308475
N       -5.64284553      -4.03814774      -4.93440581
C       -5.87002146      -2.59532178      -4.78961222
C       -6.21219819      -1.90454914      -6.12148754
N       -7.29570749      -2.55011467      -6.89132382
C       -6.90896924      -3.96090038      -7.11612106
C       -6.55292113      -4.74843239      -5.83897271
C       -8.61185688      -2.46579906      -6.23432926
C       -9.09421541      -1.04723670      -6.01536584
C       -9.30711381      -0.18754716      -7.10312232
C       -9.74593706       1.12196622      -6.89806543
C       -9.97737728       1.58722336      -5.60380953
C       -9.76937225       0.73860167      -4.51928742
C       -9.33324547      -0.57168570      -4.71651698
H       -1.60516466      -2.07457167       0.76698847
H       -3.00099598      -3.51000995      -0.62986728
H       -1.73907279      -1.32933461      -4.13429837
H       -0.33134583       0.12174915      -2.71437959
H       -4.91808798      -3.52538494      -2.24219329
H       -3.75097934      -4.88373946      -2.24951420
H       -4.99080734      -2.10716072      -4.36761942
H       -6.68167426      -2.46813903      -4.06443011
H       -6.43026571      -0.84572950      -5.94414742
H       -5.31144990      -1.90376185      -6.75145356
H       -7.69832328      -4.48769975      -7.66679240
H       -6.03502968      -3.96698917      -7.78130215
H       -7.46070469      -4.97814202      -5.26757058
H       -6.10557225      -5.70769944      -6.12541413
H       -8.62482256      -3.00421380      -5.27959522
H       -9.36145065      -2.95968936      -6.86648017
H       -9.11750485      -0.53861755      -8.11606858
H       -9.90313070       1.77991076      -7.74897796
H      -10.31661956       2.60830298      -5.45301274
H       -9.17572064      -1.22277064      -3.86007861
C      -10.00210414       1.21687930      -3.18112212
C      -10.19701710       1.61743682      -2.06040868
Br     -10.51217486       2.26510446      -0.24830984
C       -0.88157965       0.88157965       0.88157965
C       -0.40170633       1.33299155       2.10949695
C       -1.21045368       2.13249138       2.92467814
C       -2.49916963       2.47637652       2.51142404
C       -2.96959692       2.01644688       1.27775524
C       -2.16318522       1.22279129       0.45896133
O       -3.39665207       3.22427142       3.22321171
C       -2.88093741       3.96437177       4.32066811
C       -3.94968301       4.83874798       4.98565529
O       -4.14117114       4.74615643       6.20343329
N       -4.64228416       5.76578487       4.20733005
C       -4.18132949       6.19276767       2.88085829
C       -5.27707452       6.89849359       2.06266676
N       -5.97118952       7.99188251       2.77407396
C       -6.52926592       7.43162133       4.02510342
C       -5.50773006       6.70743516       4.92516102
C       -5.10432056       9.14878543       3.05887921
C       -4.53472368       9.80390503       1.81818924
C       -5.38237194      10.36423984       0.85117150
C       -4.85478828      10.96218265      -0.29493466
C       -3.47422408      11.00736155      -0.48762218
C       -2.62672536      10.45420281       0.46912983
C       -3.14645356       9.85720041       1.61779418
H        0.59573610       1.06176773       2.44671623
H       -0.80887733       2.45132632       3.88066956
H       -3.97401698       2.27725505       0.95143374
H       -2.54597430       0.87421686      -0.49621489
H       -2.05722220       4.61932275       4.00912126
H       -2.52230337       3.27043656       5.09149307
H       -3.82105833       5.33957863       2.30495052
H       -3.32257451       6.85554846       3.03612043
H       -4.86168921       7.24749742       1.11095601
H       -6.03316934       6.15176777       1.78172820
H       -7.03622525       8.21693801       4.59965218
H       -7.31637489       6.71661625       3.75032985
H       -4.85213623       7.43506302       5.41921805
H       -6.04648182       6.17451310       5.71769088
H       -4.28514608       8.88548714       3.73799836
H       -5.69007434       9.91707306       3.58047279
H       -6.46168253      10.32282484       0.98768361
H       -5.52226531      11.38909426      -1.03916168
H       -3.07211607      11.47256208      -1.38334881
H       -2.47233917       9.43000282       2.35622789
C       -1.20093974      10.49412063       0.27128659
C       -0.00684429      10.52755179       0.10559287
Br       1.92390706      10.58160717      -0.16231986
C        0.88157965      -0.88157965       0.88157965
C        0.35722255      -1.44255753       2.04441475
C        1.16495504      -2.24252311       2.86014503
C        2.49689263      -2.47728514       2.51279243
C        3.01163529      -1.90803106       1.34413269
C        2.20684189      -1.11350005       0.52459591
O        3.39600213      -3.21346720       3.23466587
C        2.86325119      -4.05550094       4.24722515
C        3.94422781      -4.90386622       4.92599225
O        4.05294178      -4.88062207       6.15719700
N        4.74399241      -5.73222852       4.13917816
C        4.39590993      -6.09803473       2.76101080
C        5.58492670      -6.67825419       1.97505398
N        6.30448526      -7.77113342       2.66152730
C        6.74513123      -7.26154380       3.97931565
C        5.62369162      -6.66375753       4.85287709
C        5.50032533      -8.99612701       2.81553285
C        5.05386353      -9.60158522       1.50136919
C        5.99542399     -10.04258070       0.55977859
C        5.58111359     -10.59476588      -0.65384321
C        4.22128229     -10.71292380      -0.94024263
C        3.28098662     -10.27838341      -0.00931202
C        3.68737735      -9.72779379       1.20627701
H       -0.67509040      -1.25696764       2.33087062
H        0.72669613      -2.64853755       3.76563953
H        4.04952649      -2.08353792       1.06964136
H        2.62436546      -0.67909363      -0.37948283
H        2.10585922      -4.73832967       3.84147733
H        2.41201664      -3.43797850       5.03423786
H        4.01632578      -5.23256999       2.21669171
H        3.57507643      -6.82184869       2.81731828
H        5.25370916      -6.98845990       0.97797357
H        6.30577630      -5.86888869       1.79200032
H        7.26637076      -8.05019378       4.53625089
H        7.49858923      -6.48224559       3.80248618
H        4.98838659      -7.46200199       5.25602871
H        6.07545905      -6.15214262       5.71108414
H        4.62477690      -8.83003877       3.45381591
H        6.10219840      -9.75939493       3.32602685
H        7.05900080      -9.94319832       0.76999185
H        6.32051619     -10.92890931      -1.37722760
H        3.90751882     -11.14173541      -1.88792490
H        2.94170671      -9.39339408       1.92346909
C        1.87609329     -10.39377549      -0.30352182
C        0.69949513     -10.49041635      -0.54992253
Br      -1.20296458     -10.64667646      -0.94833163
