101
Properties=species:S:1:pos:R:3 pbc="F F F"
C        0.00000000       0.00000000       0.00000000
C        0.86734860       0.86734860      -0.86734860
C        0.77167075       2.23604623      -0.96889495
C        1.76848846       2.63312692      -1.89151373
C        2.41760908       1.48224967      -2.29828061
O        1.86470293       0.39800584      -1.66625240
C        3.51821892       1.29426755      -3.22665769
O        4.01314481       2.24051003      -3.83040791
N        3.91979291      -0.02669211      -3.33463791
C        4.95821172      -0.55538403      -4.12720058
C        5.76986187       0.21480167      -4.95880204
C        6.77877892      -0.38405908      -5.71840444
C        6.98816555      -1.76198007      -5.65366402
Br       8.37471898      -2.49056915      -6.72739333
C        6.19100571      -2.56021982      -4.82188076
C        6.37748988      -4.04854831      -4.72264888
C        5.17729437      -1.93976452      -4.06537561
H        0.07171889       2.87307267      -0.44585205
H        2.00114186       3.63464854      -2.22960182
H        3.39438432      -0.68005823      -2.76332055
H        5.64927918       1.28975368      -5.04616450
H        7.39477725       0.24176088      -6.35999091
H        5.69449264      -4.49120081      -3.98981603
H        7.39587241      -4.28809414      -4.39998193
H        6.17527078      -4.52300158      -5.68831771
H        4.55257975      -2.55465607      -3.42031974
C       -0.86734860      -0.86734860      -0.86734860
C       -0.94031764      -2.23939507      -0.79689921
C       -1.86730715      -2.63596358      -1.78985838
C       -2.30912007      -1.48097945      -2.40803985
O       -1.69589409      -0.39453227      -1.83853481
C       -3.26117544      -1.29022258      -3.48774614
O       -3.80253446      -2.24377639      -4.03775190
N       -3.47147949       0.04272793      -3.79898715
C       -4.33343481       0.57955165      -4.77614512
C       -5.13736306      -0.19387694      -5.61222558
C       -5.96490021       0.41294476      -6.56116883
C       -5.99844566       1.80238341      -6.68378725
Br      -7.14463127       2.53946331      -8.00637520
C       -5.20513988       2.60513216      -5.85265893
C       -5.20568257       4.10515276      -5.95106064
C       -4.37534704       1.97608862      -4.90364704
H       -0.39470511      -2.87906634      -0.11687217
H       -2.18829115      -3.63948955      -2.03761154
H       -2.93464333       0.70013474      -3.24313805
H       -5.14905069      -1.27769693      -5.55844973
H       -6.57922968      -0.21606931      -7.20123005
H       -4.55985071       4.55800050      -5.19125765
H       -6.21438881       4.50071597      -5.79408736
H       -4.83311742       4.42278466      -6.93025415
H       -3.75426355       2.59378938      -4.25776924
C       -0.86734860       0.86734860       0.86734860
C       -2.15571449       0.57192456       1.24897288
C       -2.58806577       1.65644318       2.04862016
C       -1.53595778       2.55115518       2.11102641
O       -0.47813550       2.06394663       1.38687904
C       -1.41913915       3.82871418       2.79129084
O       -2.35794583       4.30515084       3.42096608
N       -0.17046141       4.41001836       2.64725894
C        0.28480940       5.63099997       3.18383770
C       -0.49685855       6.47120090       3.97540614
C        0.02562235       7.67003771       4.46870892
C        1.33822728       8.04183376       4.17624302
Br       1.96086472       9.69183770       4.88057018
C        2.14883975       7.21390898       3.38759742
C        3.56698111       7.57491459       3.04365697
C        1.60464794       6.01056722       2.89698618
H       -2.71825944      -0.31322672       0.98561089
H       -3.54808808       1.78590787       2.53139628
H        0.48622493       3.87635398       2.08751759
H       -1.52314814       6.22961831       4.23243091
H       -0.60840834       8.30645215       5.08166855
H        4.05245970       6.78542959       2.46013796
H        4.15998269       7.71442362       3.95331927
H        3.59216674       8.48980681       2.44294683
H        2.22788998       5.36508898       2.28104441
C        0.86734860      -0.86734860       0.86734860
C        2.24123187      -0.81648623       0.91889383
C        2.63694049      -1.80144625       1.85474236
C        1.47969740      -2.39555177       2.32289019
O        0.39270752      -1.81891358       1.71734007
C        1.28730268      -3.45802683       3.29381466
O        2.24063622      -4.01423542       3.82919110
N       -0.04680012      -3.74601472       3.52852411
C       -0.58501994      -4.70209116       4.41295705
C        0.18793866      -5.53770533       5.21782159
C       -0.42036320      -6.46503010       6.06845738
C       -1.81080505      -6.56620847       6.12444608
Br      -2.55008044      -7.86040827       7.30121533
C       -2.61299079      -5.73494645       5.33071099
C       -4.11412757      -5.81073835       5.35497966
C       -1.98250500      -4.80792102       4.47748944
H        2.88263181      -0.15433125       0.35368056
H        3.64140006      -2.05949005       2.16450213
H       -0.70389805      -3.18835491       2.99318978
H        1.27249006      -5.50008289       5.21262440
H        0.20826601      -7.10530662       6.68295642
H       -4.56532824      -5.05386580       4.70457030
H       -4.49209055      -5.63288690       6.36696384
H       -4.45181791      -6.79045695       5.00194786
H       -2.59983882      -4.16209968       3.85598256
