109
Properties=species:S:1:pos:R:3 pbc="F F F"
C        0.00000000       0.00000000       0.00000000
C        0.86734860       0.86734860      -0.86734860
C        0.77167075       2.23604623      -0.96889495
C        1.76848846       2.63312692      -1.89151373
C        2.41760908       1.48224967      -2.29828061
O        1.86470293       0.39800584      -1.66625240
C        3.51821892       1.29426755      -3.22665769
O        4.01314481       2.24051003      -3.83040791
N        3.91979291      -0.02669211      -3.33463791
C        4.95821172      -0.55538403      -4.12720058
C        5.76986187       0.21480167      -4.95880204
C        6.77877892      -0.38405908      -5.71840444
C        6.98816555      -1.76198007      -5.65366402
C        6.19100571      -2.56021982      -4.82188076
C        6.37748988      -4.04854831      -4.72264888
C        5.17729437      -1.93976452      -4.06537561
H        0.07171889       2.87307267      -0.44585205
H        2.00114186       3.63464854      -2.22960182
H        3.39438432      -0.68005823      -2.76332055
H        5.64927918       1.28975368      -5.04616450
H        7.39477725       0.24176088      -6.35999091
H        5.69449264      -4.49120081      -3.98981603
H        7.39587241      -4.28809414      -4.39998193
H        6.17527078      -4.52300158      -5.68831771
H        4.55257975      -2.55465607      -3.42031974
C        8.03957084      -2.31445962      -6.46785888
C        8.92012276      -2.77716124      -7.14974708
Br      10.34390075      -3.52531064      -8.25230262
C       -0.86734860      -0.86734860      -0.86734860
C       -0.96343196      -2.23676394      -0.77641603
C       -1.88086669      -2.63452569      -1.77773673
C       -2.29426672      -1.48277700      -2.42109564
O       -1.67275540      -0.39715150      -1.85905427
C       -3.22596474      -1.29435859      -3.51882083
O       -3.77380251      -2.24794665      -4.06231359
N       -3.40990668       0.03658066      -3.85441269
C       -4.24759325       0.57120081      -4.85363583
C       -5.05052416      -0.20275153      -5.69018989
C       -5.85312355       0.40175802      -6.66175874
C       -5.86242452       1.78940630      -6.80683129
C       -5.06956461       2.59275968      -5.97586172
C       -5.04447896       4.09082924      -6.09794073
C       -4.26506782       1.96599940      -5.00383704
H       -0.43896524      -2.87397743      -0.07770094
H       -2.21396155      -3.63670331      -2.01472737
H       -2.87143580       0.69426204      -3.30047288
H       -5.08045251      -1.28524904      -5.61949580
H       -6.46728225      -0.22766531      -7.30158149
H       -4.40354454       4.54555504      -5.33511836
H       -6.04906049       4.50474442      -5.96344413
H       -4.65144376       4.38678064      -7.07592378
H       -3.64443026       2.58409894      -4.35791210
C       -6.70653025       2.34581544      -7.83225529
C       -7.41346880       2.81180810      -8.69104789
Br      -8.55652864       3.56527881     -10.07964290
C       -0.86734860       0.86734860       0.86734860
C       -2.16708994       0.58800225       1.22151973
C       -2.59465066       1.66600504       2.03247340
C       -1.52855861       2.54095524       2.12862552
O       -0.46676032       2.04783389       1.41436696
C       -1.40170366       3.80438029       2.83306022
O       -2.34305367       4.28627487       3.45473420
N       -0.14087930       4.36612765       2.72073176
C        0.32586785       5.56953942       3.28635670
C       -0.45496636       6.40955238       4.07894685
C        0.07934723       7.59039398       4.60207753
C        1.40307346       7.94413102       4.33879194
C        2.21300351       7.11583352       3.54983664
C        3.64294984       7.45782143       3.23671886
C        1.65686092       5.93082209       3.02894429
H       -2.74008396      -0.28250310       0.93306275
H       -3.56060792       1.80393101       2.50085330
H        0.51622648       3.83075827       2.16311485
H       -1.48960274       6.18158701       4.31400761
H       -0.55427357       8.22717024       5.21508523
H        4.12491432       6.67011481       2.64790736
H        4.22224817       7.57125638       4.15875200
H        3.69438486       8.38233233       2.65263943
H        2.27959258       5.28522494       2.41261105
C        1.88724573       9.17747611       4.90273972
C        2.29274002      10.21040263       5.37504598
Br       2.94838997      11.88055744       6.13872527
C        0.86734860      -0.86734860       0.86734860
C        2.24248720      -0.83712239       0.89700235
C        2.63757131      -1.81365134       1.84190645
C        1.47878396      -2.38239130       2.33696410
O        0.39146554      -1.79824186       1.73925377
C        1.28526249      -3.42671147       3.32717020
O        2.23817629      -3.98942989       3.85645657
N       -0.04928262      -3.69023309       3.58678824
C       -0.58826160      -4.62411710       4.49417277
C        0.18423269      -5.45922658       5.30000631
C       -0.42489708      -6.36379213       6.17422923
C       -1.81568638      -6.44241377       6.25312212
C       -2.61729414      -5.61102901       5.45893179
C       -4.11885668      -5.66303166       5.50741547
C       -1.98603064      -4.70714820       4.58178790
H        2.88508626      -0.19379843       0.31175892
H        3.64265837      -2.08253600       2.14019786
H       -0.70600876      -3.13068066       3.05297474
H        1.26902099      -5.43859812       5.27757824
H        0.20333311      -7.00428273       6.78891320
H       -4.56847102      -4.90928970       4.85228918
H       -4.47822547      -5.46379942       6.52218625
H       -4.47700573      -6.64267047       5.17492217
H       -2.60299229      -4.06139772       3.95983798
C       -2.37728823      -7.40112026       7.16913807
C       -2.84762978      -8.20403694       7.93630143
Br      -3.60813228      -9.50228531       9.17673970
