122
Properties=species:S:1:pos:R:3 pbc="F F F"
C        1.77725262       1.77725262      -1.77725262
C        1.68157477       3.14595026      -1.87879897
C        2.67839248       3.54303094      -2.80141775
C        3.32751311       2.39215370      -3.20818464
O        2.77460695       1.30790986      -2.57615643
C        4.42812294       2.20417158      -4.13656172
O        4.92304884       3.15041405      -4.74031193
N        4.82969693       0.88321191      -4.24454193
C        5.86811575       0.35451999      -5.03710461
C        6.67976590       1.12470570      -5.86870606
C        7.68868295       0.52584494      -6.62830846
C        7.89806958      -0.85207604      -6.56356804
Br       9.28462300      -1.58066513      -7.63729736
C        7.10090974      -1.65031580      -5.73178478
C        7.28739390      -3.13864429      -5.63255291
C        6.08719839      -1.02986050      -4.97527964
H        0.98162292       3.78297669      -1.35575608
H        2.91104589       4.54455257      -3.13950585
H        4.30428834       0.22984580      -3.67322457
H        6.55918320       2.19965770      -5.95606852
H        8.30468128       1.15166490      -7.26989494
H        6.60439666      -3.58129679      -4.89972006
H        8.30577643      -3.37819011      -5.30988595
H        7.08517480      -3.61309755      -6.59822173
H        5.46248377      -1.64475205      -4.33022376
C       -1.77725262      -1.77725262      -1.77725262
C       -1.78045710      -3.15303216      -1.77283474
C       -2.73630659      -3.54771980      -2.73881478
C       -3.26387671      -2.38814314      -3.27583159
O       -2.67563329      -1.30074622      -2.68229373
C       -4.27737976      -2.19403083      -4.29744565
O       -4.79934061      -3.14616321      -4.86827100
N       -4.56705062      -0.85998706      -4.53041310
C       -5.50214169      -0.32103122      -5.43656743
C       -6.30916325      -1.09298700      -6.27102740
C       -7.21186194      -0.48382144      -7.14715297
C       -7.31838679       0.90643289      -7.19760767
Br      -8.56411654       1.64740826      -8.42454696
C       -6.52362310       1.70733854      -6.36609416
C       -6.60132263       3.20840841      -6.38838830
C       -5.61760141       1.07611609      -5.49113221
H       -1.17101113      -3.79628075      -1.15306381
H       -3.02074321      -4.55310504      -3.02125606
H       -4.03505519      -0.20378925      -3.96851428
H       -6.26594863      -2.17734227      -6.27161853
H       -7.82678577      -1.11156146      -7.78789389
H       -5.94044171       3.65624239      -5.63862061
H       -7.61866706       3.54445263      -6.16325783
H       -6.29445930       3.59122268      -7.36706235
H       -4.99510153       1.69263197      -4.84548592
C       -1.77725262       1.77725262       1.77725262
C       -3.03609682       1.44690319       2.22332399
C       -3.48084606       2.54555162       2.99644350
C       -2.46502928       3.48319170       2.97963046
O       -1.41756531       3.00885559       2.23225233
C       -2.37425010       4.79144882       3.60315732
O       -3.30620379       5.25585065       4.25172039
N       -1.15741916       5.41546512       3.38456649
C       -0.73211477       6.67474289       3.85288268
C       -1.51581224       7.51525719       4.64210823
C       -1.02421196       8.75330667       5.06531773
C        0.25921370       9.16455652       4.70421875
Br       0.84051664      10.86574618       5.31602569
C        1.07141597       8.33756962       3.91622508
C        2.45860477       8.74011083       3.49979646
C        0.55843403       7.09427107       3.49678049
H       -3.57154082       0.52994847       2.01886640
H       -4.42545604       2.65662899       3.51301928
H       -0.50197209       4.88561115       2.81977546
H       -2.52019350       7.24391956       4.95079637
H       -1.65917886       9.38884492       5.67821734
H        2.95277116       7.94706837       2.92852272
H        3.08101121       8.94061722       4.37786625
H        2.42199870       9.62962912       2.86266856
H        1.18288673       6.44913168       2.88171053
C        1.77725262      -1.77725262       1.77725262
C        3.14411135      -1.67050195       1.89171071
C        3.54301179      -2.67827715       2.80155224
C        2.39440669      -3.34107929       3.19236546
O        1.30960346      -2.78480479       2.56426498
C        2.20825636      -4.45271901       4.10788087
O        3.16172601      -4.99116262       4.66088620
N        0.87946591      -4.80714076       4.27084410
C        0.34709681      -5.82341781       5.08922572
C        1.12147744      -6.66032726       5.89137296
C        0.51931806      -7.64938199       6.67413630
C       -0.86640002      -7.81181918       6.66414242
Br      -1.59686811      -9.18705841       7.75106492
C       -1.67023202      -6.98098618       5.87162456
C       -3.16621587      -7.12137435       5.82614404
C       -1.04580755      -5.99117486       5.08725022
H        3.77894663      -0.95735633       1.38405273
H        4.54387329      -2.90695570       3.14427531
H        0.22160829      -4.25468703       3.73106339
H        2.20254173      -6.57654904       5.93581866
H        1.14906243      -8.28901073       7.28816796
H       -3.62250698      -6.35625362       5.18907330
H       -3.59426379      -7.00471056       6.82702550
H       -3.44490421      -8.09793406       5.41726913
H       -1.66422617      -5.34522230       4.46695936
C       -0.00445707       0.01189536      -1.78238275
H       -0.66409135       0.67374010      -2.43557963
H        0.65740317      -0.63156657      -2.45157240
C       -0.90989263      -0.90692880      -0.91072765
C        0.90977584       0.90977584      -0.90977584
C       -0.00465871       1.77757030       0.00794375
H       -0.66225468       2.44313916      -0.64384735
H        0.64322798       2.43503045       0.67728295
C       -1.78241447       0.00034974      -0.00472694
H       -2.45427497      -0.65498947       0.64260836
H       -2.43311707       0.67328779      -0.65473579
C       -0.91132561       0.90220522       0.91563759
C       -0.01476271      -0.02253852       1.78660255
H       -0.67934791      -0.69751639       2.42135241
H        0.63392994       0.61504881       2.47327442
C        0.01484550      -1.77751727      -0.01636693
H        0.67870853      -2.42144646      -0.68295456
H       -0.62264859      -2.45592969       0.64226336
C        1.78714474       0.01002794       0.00389507
H        2.44202412       0.67113390       0.66197326
H        2.45385902      -0.65136977      -0.64189061
C        0.91606151      -0.90478549       0.90901405
