158
Properties=species:S:1:pos:R:3 pbc="F F F"
C        5.42807221       4.66231102      -3.78965434
O        4.14471489       4.22875478      -4.22778653
C        3.40839583       3.43309485      -3.38988719
C        3.79035809       3.11776082      -2.08060766
C        2.98236401       2.30197476      -1.28292050
C        1.79148916       1.79148916      -1.79148916
C        1.39739364       2.08547084      -3.09357852
C        2.19666131       2.91537389      -3.89557034
C        1.70577160       3.19463879      -5.27966276
O        0.97959991       2.39017056      -5.85975133
N        2.06813462       4.41978028      -5.82135974
C        1.89098355       4.91654829      -7.10413543
S        2.54231881       6.43241588      -7.38114834
N        1.23367095       4.06672105      -7.95927802
C        0.95966448       4.20551799      -9.32726948
C        0.40963248       3.10282476      -9.97907318
C        0.16201979       3.16963273     -11.35211176
C        0.45356981       4.34277730     -12.03252096
C        0.97919217       5.39892843     -11.31248785
N        1.23676943       5.34594933      -9.98447044
H        5.88691725       5.22206927      -4.61030636
H        6.07851363       3.81198401      -3.56098166
H        5.33876749       5.33811248      -2.93355422
H        4.71150198       3.49282518      -1.64456123
H        3.29334627       2.07238707      -0.26607294
H        0.46543854       1.68328731      -3.48629891
H        2.65575112       5.01554569      -5.24802716
H        0.94401045       3.18793763      -7.53467515
H        0.19197871       2.18560202      -9.44058402
H       -0.24703070       2.30811825     -11.87142695
H        1.22418890       6.34674254     -11.78278372
C        0.22512683       4.45185285     -13.45009506
C        0.03380584       4.54320362     -14.63731337
Br      -0.27554403       4.69091009     -16.55694497
C       -3.74747391      -4.76246601      -5.37009765
O       -4.25510571      -4.16388698      -4.18226352
C       -3.40798369      -3.39012575      -3.43326842
C       -2.10704283      -3.05499203      -3.82669171
C       -1.30259871      -2.25524998      -3.00941057
C       -1.79148916      -1.79148916      -1.79148916
C       -3.07894617      -2.12021450      -1.37728233
C       -3.89736048      -2.91112332      -2.19912175
C       -5.27059460      -3.21617060      -1.69330794
O       -5.50069857      -3.24272053      -0.48610271
N       -6.25072692      -3.40027280      -2.65827492
C       -7.56639905      -3.81893014      -2.52633808
S       -8.41268264      -3.98309752      -3.96010287
N       -7.95958435      -4.06599368      -1.23409198
C       -9.17234768      -4.57337080      -0.74673347
C       -9.23447662      -4.87082611       0.61377230
C      -10.40250266      -5.42442445       1.14316283
C      -11.48268267      -5.64833643       0.30215102
C      -11.35027615      -5.30920229      -1.03113001
N      -10.22120095      -4.78384646      -1.56214178
H       -4.53946556      -5.39027664      -5.78955068
H       -2.88918874      -5.40711733      -5.15517323
H       -3.49732565      -3.99946991      -6.11363862
H       -1.68519968      -3.39633153      -4.76735717
H       -0.29613640      -2.00100313      -3.33466674
H       -3.45600733      -1.75521289      -0.42380453
H       -5.95423008      -3.33870783      -3.62638606
H       -7.23853815      -3.89109774      -0.53698733
H       -8.38163534      -4.70001423       1.26348482
H      -10.45208646      -5.67825990       2.19783186
H      -12.15914101      -5.45310399      -1.74147016
C      -12.70215840      -6.22778508       0.80286873
C      -13.72346932      -6.71307332       1.22221980
Br     -15.37484270      -7.49774337       1.90027503
C       -5.51507648       4.46553212       3.89942897
O       -4.14603966       4.23807775       4.21713880
C       -3.41360959       3.43038939       3.38737889
C       -3.89719917       2.91058435       2.18094305
C       -3.08705809       2.09621862       1.38398255
C       -1.79148916       1.79148916       1.79148916
C       -1.29404115       2.29070234       2.99169951
C       -2.09688920       3.12050774       3.79020860
C       -1.49296355       3.62649977       5.06060983
O       -0.61003938       2.98888347       5.63059895
N       -1.94462668       4.86190933       5.50273864
C       -1.68888157       5.53414073       6.68864496
S       -2.49196858       6.99001125       6.87390320
N       -0.83715055       4.87897699       7.54354249
C       -0.43095933       5.22011380       8.84137881
C        0.32426858       4.27788804       9.53791097
C        0.71414808       4.54575120      10.85216117
C        0.35446080       5.75547309      11.42785580
C       -0.37847483       6.64591776      10.66621586
N       -0.77486890       6.39627502       9.39604527
H       -5.94605798       5.06973105       4.70350384
H       -6.07393200       3.52539003       3.85215726
H       -5.60902246       5.03298385       2.96842787
H       -4.90160825       3.12136935       1.82591079
H       -3.47870449       1.70599668       0.44710510
H       -0.28040650       2.04890912       3.30570913
H       -2.66376385       5.31027269       4.94528743
H       -0.48791787       3.99159783       7.18710752
H        0.59461254       3.33008420       9.08269309
H        1.28494581       3.80856062      11.40889968
H       -0.68731181       7.61214574      11.05425761
C        0.72509131       6.06848767      12.78367839
C        1.03549435       6.33063738      13.91917981
Br       1.53738983       6.75451130      15.75518957
C        3.70677514      -4.89327171       5.27999072
O        4.25306199      -4.15831931       4.18987492
C        3.40449445      -3.39238857       3.43449484
C        2.05308057      -3.19447097       3.74117504
C        1.25003790      -2.39360918       2.92361218
C        1.79148916      -1.79148916       1.79148916
C        3.13058932      -1.98233231       1.46352138
C        3.94640402      -2.77371492       2.28748660
C        5.37585789      -2.92657040       1.87764485
O        5.70098174      -2.83261611       0.69592395
N        6.28968393      -3.11469439       2.90489632
C        7.64238586      -3.41659794       2.85268347
S        8.38494444      -3.63512261       4.33581599
N        8.15484294      -3.52173743       1.58308965
C        9.44060870      -3.88967390       1.16216934
C        9.63382141      -4.06494291      -0.20723390
C       10.88235043      -4.47872350      -0.67730965
C       11.90861533      -4.68806695       0.23218580
C       11.64418661      -4.47457864       1.57184320
N       10.43661660      -4.08594700       2.04462560
H        4.51394835      -5.49059155       5.71475297
H        2.92565824      -5.58244909       4.94337197
H        3.33552148      -4.21794442       6.05696829
H        1.58950851      -3.64624140       4.61313847
H        0.20332205      -2.24725588       3.18122834
H        3.54867266      -1.50946947       0.57688263
H        5.91431843      -3.15878205       3.84622349
H        7.47823153      -3.34522988       0.84316182
H        8.82293782      -3.90680572      -0.91157879
H       11.03551236      -4.63757366      -1.74057152
H       12.40436939      -4.61456066       2.33478511
C       13.20820286      -5.12593741      -0.20706552
C       14.29660741      -5.49265392      -0.57493850
Br      16.05646552      -6.08560351      -1.16975799
C       -0.00445707       0.01189536      -1.78238275
H       -0.66409135       0.67374010      -2.43557963
H        0.65740317      -0.63156657      -2.45157240
C       -0.90989263      -0.90692880      -0.91072765
C        0.90977584       0.90977584      -0.90977584
C       -0.00465871       1.77757030       0.00794375
H       -0.66225468       2.44313916      -0.64384735
H        0.64322798       2.43503045       0.67728295
C       -1.78241447       0.00034974      -0.00472694
H       -2.45427497      -0.65498947       0.64260836
H       -2.43311707       0.67328779      -0.65473579
C       -0.91132561       0.90220522       0.91563759
C       -0.01476271      -0.02253852       1.78660255
H       -0.67934791      -0.69751639       2.42135241
H        0.63392994       0.61504881       2.47327442
C        0.01484550      -1.77751727      -0.01636693
H        0.67870853      -2.42144646      -0.68295456
H       -0.62264859      -2.45592969       0.64226336
C        1.78714474       0.01002794       0.00389507
H        2.44202412       0.67113390       0.66197326
H        2.45385902      -0.65136977      -0.64189061
C        0.91606151      -0.90478549       0.90901405
