150
Properties=species:S:1:pos:R:3 pbc="F F F"
C        5.42807221       4.66231102      -3.78965434
O        4.14471489       4.22875478      -4.22778653
C        3.40839583       3.43309485      -3.38988719
C        3.79035809       3.11776082      -2.08060766
C        2.98236401       2.30197476      -1.28292050
C        1.79148916       1.79148916      -1.79148916
C        1.39739364       2.08547084      -3.09357852
C        2.19666131       2.91537389      -3.89557034
C        1.70577160       3.19463879      -5.27966276
O        0.97959991       2.39017056      -5.85975133
N        2.06813462       4.41978028      -5.82135974
C        1.89098355       4.91654829      -7.10413543
S        2.54231881       6.43241588      -7.38114834
N        1.23367095       4.06672105      -7.95927802
C        0.95966448       4.20551799      -9.32726948
C        0.40963248       3.10282476      -9.97907318
C        0.16201979       3.16963273     -11.35211176
C        0.45356981       4.34277730     -12.03252096
Br       0.15478967       4.48543701     -13.88656344
C        0.97919217       5.39892843     -11.31248785
N        1.23676943       5.34594933      -9.98447044
H        5.88691725       5.22206927      -4.61030636
H        6.07851363       3.81198401      -3.56098166
H        5.33876749       5.33811248      -2.93355422
H        4.71150198       3.49282518      -1.64456123
H        3.29334627       2.07238707      -0.26607294
H        0.46543854       1.68328731      -3.48629891
H        2.65575112       5.01554569      -5.24802716
H        0.94401045       3.18793763      -7.53467515
H        0.19197871       2.18560202      -9.44058402
H       -0.24703070       2.30811825     -11.87142695
H        1.22418890       6.34674254     -11.78278372
C       -4.19916996      -4.10900890      -5.57185871
O       -4.24845658      -4.20082720      -4.15197243
C       -3.42507440      -3.38555293      -3.42075054
C       -2.62387827      -2.38374052      -3.98110779
C       -1.81206003      -1.58704714      -3.16815209
C       -1.79148916      -1.79148916      -1.79148916
C       -2.57369426      -2.78789354      -1.21485521
C       -3.40191226      -3.58236204      -2.02333124
C       -4.22006670      -4.62627344      -1.33373301
O       -3.84244149      -5.11578531      -0.27129500
N       -5.43076906      -4.94751266      -1.93099293
C       -6.34092699      -5.94772959      -1.62301069
S       -7.66406689      -6.05016078      -2.64165536
N       -5.99383740      -6.72225460      -0.54357802
C       -6.62643969      -7.85464584      -0.01136642
C       -5.95665409      -8.53756988       1.00269355
C       -6.51862524      -9.70022208       1.53508304
C       -7.74317327     -10.13817330       1.05247849
Br      -8.54160451     -11.70708369       1.72189808
C       -8.35416811      -9.39595445       0.05951411
N       -7.81698236      -8.27447193      -0.47573490
H       -4.86690375      -4.87537705      -5.97701208
H       -3.19146924      -4.31123725      -5.94877280
H       -4.56427687      -3.13482093      -5.91133639
H       -2.60791947      -2.19121876      -5.04975015
H       -1.20043541      -0.80995723      -3.62141363
H       -2.55343564      -2.94369155      -0.13789756
H       -5.65231146      -4.46931167      -2.79770083
H       -5.12089476      -6.44922913      -0.09649934
H       -4.99469495      -8.19250320       1.36903339
H       -5.99364999     -10.24966261       2.31079810
H       -9.31570770      -9.68004249      -0.35796497
C       -5.49025442       4.53065022       3.85913294
O       -4.14533184       4.23513844       4.22078592
C       -3.41187881       3.43139225       3.38810680
C       -3.86579482       2.97955127       2.14338049
C       -3.05635826       2.16467485       1.34622616
C       -1.79148916       1.79148916       1.79148916
C       -1.32429103       2.22244943       3.02970254
C       -2.12590339       3.05238187       3.82932028
C       -1.55500114       3.48300285       5.14206915
O       -0.72182331       2.78794999       5.71974850
N       -1.97550422       4.71752719       5.61624323
C       -1.74224318       5.33166708       6.83775701
S       -2.49445221       6.81074489       7.05068593
N       -0.95254084       4.60918406       7.69794511
C       -0.58664879       4.88221861       9.02358454
C        0.10190731       3.88329631       9.71014142
C        0.44796629       4.08319716      11.04853341
C        0.11282420       5.28307239      11.65861990
Br       0.54039522       5.60237507      13.46481027
C       -0.55284760       6.23194196      10.90581889
N       -0.90649677       6.04876789       9.61192454
H       -5.92968278       5.11992288       4.66968722
H       -6.08319053       3.61671409       3.75157468
H       -5.52372299       5.13758109       2.94913011
H       -4.84580480       3.24498425       1.75809933
H       -3.42440756       1.82786816       0.37953055
H       -0.33461120       1.92729161       3.37312194
H       -2.65310087       5.21644541       5.04977769
H       -0.62414182       3.72295252       7.31952889
H        0.35320912       2.94383947       9.22753440
H        0.96615146       3.30200617      11.59665979
H       -0.83911189       7.19400383      11.32059944
C        3.69809112      -4.93176063       5.25018582
O        4.25223723      -4.15680198       4.19221700
C        3.40346325      -3.39314360       3.43477102
C        2.04047899      -3.23585030       3.71239728
C        1.23784375      -2.43462532       2.89479019
C        1.79148916      -1.79148916       1.79148916
C        3.14250848      -1.94148117       1.49245336
C        3.95751609      -2.73308172       2.31700773
C        5.39987843      -2.84087156       1.93932316
O        5.75119836      -2.70961712       0.76870632
N        6.29286013      -3.03226244       2.98415207
C        7.65353559      -3.29978925       2.95834243
S        8.36502611      -3.53708860       4.45376831
N        8.19917380      -3.36076265       1.69973357
C        9.50356490      -3.68672087       1.30216617
C        9.73432709      -3.82305654      -0.06585320
C       11.00384184      -4.19451145      -0.51458901
C       12.01258643      -4.40144009       0.41484156
Br      13.73952612      -4.91813421      -0.13087021
C       11.71042219      -4.22789866       1.75228760
N       10.48240257      -3.88064893       2.20413769
H        4.50908984      -5.51992633       5.69027670
H        2.94280911      -5.63112443       4.87754575
H        3.29133874      -4.28523446       6.03386099
H        1.56724454      -3.72035051       4.56129333
H        0.18185092      -2.32023320       3.12972215
H        3.57011296      -1.43664170       0.62827008
H        5.89593164      -3.10891096       3.91448136
H        7.53656581      -3.18237384       0.94768358
H        8.93712094      -3.66717874      -0.78613493
H       11.18672418      -4.32304190      -1.57725159
H       12.45508096      -4.36832552       2.53030868
C       -0.00445707       0.01189536      -1.78238275
H       -0.66409135       0.67374010      -2.43557963
H        0.65740317      -0.63156657      -2.45157240
C       -0.90989263      -0.90692880      -0.91072765
C        0.90977584       0.90977584      -0.90977584
C       -0.00465871       1.77757030       0.00794375
H       -0.66225468       2.44313916      -0.64384735
H        0.64322798       2.43503045       0.67728295
C       -1.78241447       0.00034974      -0.00472694
H       -2.45427497      -0.65498947       0.64260836
H       -2.43311707       0.67328779      -0.65473579
C       -0.91132561       0.90220522       0.91563759
C       -0.01476271      -0.02253852       1.78660255
H       -0.67934791      -0.69751639       2.42135241
H        0.63392994       0.61504881       2.47327442
C        0.01484550      -1.77751727      -0.01636693
H        0.67870853      -2.42144646      -0.68295456
H       -0.62264859      -2.45592969       0.64226336
C        1.78714474       0.01002794       0.00389507
H        2.44202412       0.67113390       0.66197326
H        2.45385902      -0.65136977      -0.64189061
C        0.91606151      -0.90478549       0.90901405
