98
Properties=species:S:1:pos:R:3 pbc="F F F"
C        1.79154112       1.79154112      -1.79154112
C        1.67195726       3.17858116      -1.72227038
C        2.47695139       3.99236933      -2.52750552
C        3.40484071       3.41305301      -3.40505676
C        3.51528571       2.01381278      -3.46511765
C        2.70923341       1.20530603      -2.65900056
N        4.23814931       4.21459888      -4.23727388
N        5.13501958       3.63746483      -5.08499125
C        5.71848652       4.66536245      -5.68326587
O        6.66192613       4.37857465      -6.58569955
C        5.23455426       5.89754442      -5.25653817
Br       5.78797336       7.57614066      -5.84745373
C        4.27895567       5.59570841      -4.32275478
H        0.95526298       3.63658264      -1.04482917
H        2.35136883       5.06710650      -2.44200462
H        4.22731739       1.53627827      -4.13743941
H        2.80800680       0.12439904      -2.71838513
H        7.01397856       5.20447873      -6.95355386
H        3.64232074       6.23140576      -3.72853465
C       -1.79154112      -1.79154112      -1.79154112
C       -2.78629609      -1.21034004      -2.57617267
C       -3.59776234      -2.01260187      -3.38646203
C       -3.41087918      -3.40228267      -3.40978863
C       -2.40474019      -3.97530533      -2.61417062
C       -1.59688301      -3.17001740      -1.80663958
N       -4.22067641      -4.24530098      -4.22404468
N       -4.02737749      -5.59384509      -4.23625308
C       -4.93953637      -6.04111772      -5.08646075
O       -4.97311438      -7.36154434      -5.29154161
C       -5.72482370      -5.03130703      -5.63250611
Br      -7.11040563      -5.23992470      -6.86123743
C       -5.25275483      -3.87538876      -5.06927527
H       -2.93845283      -0.13374628      -2.56447568
H       -4.35996640      -1.51924935      -3.98126420
H       -2.23694658      -5.05182125      -2.61226723
H       -0.82313740      -3.63023962      -1.19741395
H       -5.67562643      -7.56839652      -5.92798820
H       -5.55712508      -2.84886824      -5.19626782
C       -1.79154112       1.79154112       1.79154112
C       -2.01573261       1.43640245       3.12067374
C       -2.82268240       2.24001135       3.93413249
C       -3.40665828       3.40354534       3.41274685
C       -3.17265961       3.75002991       2.07152662
C       -2.36606388       2.94436472       1.26311141
N       -4.23268963       4.24181390       4.21551854
N       -4.79329612       5.36915292       3.69502663
C       -5.47813866       5.88312821       4.70584797
O       -6.14094445       7.01892419       4.46633169
C       -5.38568144       5.13086769       5.87208772
Br      -6.19576312       5.50835435       7.50745030
C       -4.57923937       4.07305253       5.54512696
H       -1.56709942       0.53605386       3.53352152
H       -2.97098149       1.92676295       4.96273551
H       -3.61327557       4.64804862       1.63971088
H       -2.19566851       3.22757777       0.22754469
H       -6.60109695       7.29688740       5.27402680
H       -4.23284829       3.23747884       6.13193403
C        1.79154112      -1.79154112       1.79154112
C        2.13617665      -3.07269639       1.36393575
C        2.94389278      -3.88584987       2.16708358
C        3.40738476      -3.41245747       3.40310825
C        3.05265977      -2.11932703       3.82222934
C        2.24584717      -1.31099820       3.01669463
N        4.23091390      -4.21622588       4.24288229
N        4.67359881      -3.74270653       5.44117033
C        5.39401125      -4.73935905       5.93374454
O        5.95837634      -4.53905537       7.12876862
C        5.43887088      -5.85090038       5.09886559
Br       6.33899683      -7.45039497       5.42217596
C        4.68471292      -5.50311291       4.00959303
H        1.78142264      -3.44814859       0.40710356
H        3.18815209      -4.87622837       1.79609949
H        3.39815997      -1.72539944       4.77747566
H        1.98113721      -0.31300050       3.35665326
H        6.45643668      -5.33165038       7.38392410
H        4.44012515      -6.04936792       3.11276807
C       -0.00445707       0.01189536      -1.78238275
H       -0.66409135       0.67374010      -2.43557963
H        0.65740317      -0.63156657      -2.45157240
C       -0.90989263      -0.90692880      -0.91072765
C        0.90977584       0.90977584      -0.90977584
C       -0.00465871       1.77757030       0.00794375
H       -0.66225468       2.44313916      -0.64384735
H        0.64322798       2.43503045       0.67728295
C       -1.78241447       0.00034974      -0.00472694
H       -2.45427497      -0.65498947       0.64260836
H       -2.43311707       0.67328779      -0.65473579
C       -0.91132561       0.90220522       0.91563759
C       -0.01476271      -0.02253852       1.78660255
H       -0.67934791      -0.69751639       2.42135241
H        0.63392994       0.61504881       2.47327442
C        0.01484550      -1.77751727      -0.01636693
H        0.67870853      -2.42144646      -0.68295456
H       -0.62264859      -2.45592969       0.64226336
C        1.78714474       0.01002794       0.00389507
H        2.44202412       0.67113390       0.66197326
H        2.45385902      -0.65136977      -0.64189061
C        0.91606151      -0.90478549       0.90901405
