165
Properties=species:S:1:pos:R:3 pbc="F F F"
C        0.00000000       0.00000000       0.00000000
C        0.88139283       0.88139283      -0.88139283
C        1.92162992       1.60741508      -0.31684434
C        2.72835012       2.40721620      -1.13418390
C        2.49200538       2.52576285      -2.51433514
C        1.45482927       1.76006892      -3.05707096
C        0.64768084       0.94740782      -2.24985589
N        3.38461214       3.28927400      -3.27184701
C        3.04906256       3.76484092      -4.62500889
C        3.79644398       5.07193898      -4.91973628
C        5.29812660       4.85527966      -5.11645815
N        5.59362135       3.85744779      -6.16002929
C        4.93274224       2.57948796      -5.84177085
C        3.42172014       2.73471603      -5.68988228
C        7.06051409       3.69030508      -6.25838308
C        7.50999766       2.76431631      -7.37038907
C        7.81094903       1.41914746      -7.09698134
C        8.20459282       0.55429497      -8.11781159
C        8.31717527       1.02694152      -9.42453444
C        8.02596478       2.36218168      -9.70491976
Br       8.19169776       3.00192237     -11.47470991
C        7.61610321       3.22799331      -8.68985913
H        2.12353666       1.55541513       0.74931229
H        3.55304935       2.94781244      -0.67515384
H        1.24436546       1.77301086      -4.12191726
H       -0.15151375       0.36809143      -2.70634896
H        3.82506392       4.00295241      -2.69637495
H        1.97483230       3.98417716      -4.67625564
H        3.63651257       5.79511735      -4.10963997
H        3.37976281       5.52396547      -5.83023838
H        5.74097107       5.81882414      -5.39953759
H        5.75292777       4.56420142      -4.16048246
H        5.08752690       1.86515145      -6.65643285
H        5.35419888       2.13526909      -4.93169172
H        2.99667680       3.05112540      -6.65293443
H        2.99216937       1.75174141      -5.47173964
H        7.47966212       3.34101869      -5.30559555
H        7.52422624       4.66788200      -6.44635131
H        7.72068299       1.03623425      -6.08384979
H        8.41954338      -0.48638251      -7.89563940
H        8.62826834       0.34834614     -10.21596507
H        7.37617522       4.26353879      -8.91767246
C       -0.88139283      -0.88139283      -0.88139283
C       -0.30111345      -1.81390751      -1.73086838
C       -1.11781970      -2.62202178      -2.52990874
C       -2.51696212      -2.49127964      -2.52386161
C       -3.07208223      -1.56302268      -1.63686425
C       -2.26441582      -0.75628613      -0.82424260
N       -3.26473815      -3.38258882      -3.29840618
C       -4.67382749      -3.12402091      -3.64106397
C       -5.01724892      -3.79193404      -4.97893629
C       -5.08130151      -5.31676519      -4.87179772
N       -6.01421581      -5.77147632      -3.82540630
C       -5.64324935      -5.18539120      -2.52536049
C       -5.61942300      -3.65960361      -2.56729183
C       -5.98720607      -7.24992494      -3.77207124
C       -6.98235759      -7.85783275      -2.80451269
C       -6.57763794      -8.23633700      -1.51310289
C       -7.49142038      -8.77665352      -0.60862548
C       -8.82019507      -8.95983543      -0.98862074
C       -9.23029766      -8.59233471      -2.27043386
Br     -11.02891808      -8.85363314      -2.78577881
C       -8.32355521      -8.03630185      -3.17409859
H        0.77793405      -1.93112016      -1.77645338
H       -0.64352203      -3.36302915      -3.16946445
H       -4.14727464      -1.44015592      -1.55186302
H       -2.73108842      -0.04334762      -0.14849061
H       -2.71799909      -3.71910198      -4.08729021
H       -4.82405417      -2.04409163      -3.76711930
H       -4.28358139      -3.51186579      -5.74582271
H       -5.99065501      -3.41824773      -5.32506391
H       -5.40804912      -5.70709706      -5.84418662
H       -4.07300933      -5.71242228      -4.69218004
H       -6.38256829      -5.46004960      -1.76649332
H       -4.67054188      -5.56326674      -2.18735107
H       -6.63457048      -3.29218077      -2.77398538
H       -5.35460810      -3.28927492      -1.57176740
H       -4.98001121      -7.61481943      -3.53144573
H       -6.21900639      -7.65213762      -4.76731554
H       -5.54628573      -8.09259831      -1.20188299
H       -7.16907988      -9.05084077       0.39112039
H       -9.52752314      -9.38521681      -0.27983960
H       -8.65297199      -7.73814392      -4.16627056
C       -0.88139283       0.88139283       0.88139283
C       -1.10235111       0.53566023       2.20787800
C       -1.90629250       1.35374197       3.00971576
C       -2.53018419       2.50413820       2.49778096
C       -2.26508416       2.84066521       1.16621978
C       -1.45288988       2.03479781       0.35725686
N       -3.26028191       3.30505357       3.38039768
C       -4.22471066       4.31101263       2.90318909
C       -5.33184224       4.50965667       3.94662034
C       -4.83422803       5.24035782       5.19527856
N       -4.19953764       6.53236610       4.87919468
C       -3.09009124       6.33391261       3.92999719
C       -3.54888477       5.65591870       2.64151497
C       -3.72284871       7.14981858       6.13653496
C       -3.13887577       8.53784380       5.96798347
C       -1.74897189       8.71603568       5.86207026
C       -1.20402522       9.98754801       5.68512616
C       -2.04129788      11.10071803       5.62663533
C       -3.42210002      10.93453628       5.73642992
Br      -4.55248982      12.44668246       5.66915775
C       -3.97378411       9.66266263       5.89750891
H       -0.65176024      -0.35622503       2.63410429
H       -2.04577361       1.07772239       4.05251963
H       -2.68172889       3.73802114       0.71954355
H       -1.27107274       2.32639952      -0.67454561
H       -3.61234793       2.75318789       4.15885546
H       -4.70307281       3.94758749       1.98460480
H       -5.76077909       3.54228334       4.23820747
H       -6.14756251       5.09100462       3.49539953
H       -5.69853220       5.41087231       5.84992829
H       -4.14080104       4.59105498       5.74575562
H       -2.67198093       7.30158543       3.63554484
H       -2.28046423       5.75263567       4.38805979
H       -4.26050326       6.31538718       2.12484620
H       -2.68520310       5.55372528       1.97672204
H       -2.98611292       6.50574860       6.63441484
H       -4.56327612       7.23717237       6.83801106
H       -1.08554069       7.85598712       5.89923922
H       -0.12955253      10.10975954       5.58948820
H       -1.60999911      12.09042930       5.49215115
H       -5.05153271       9.53854622       5.96730754
C        0.88139283      -0.88139283       0.88139283
C        1.15574535      -2.18847299       0.50167101
C        1.97040266      -2.98641626       1.31293130
C        2.49329311      -2.51118826       2.52762200
C        2.22220259      -1.18180419       2.86796238
C        1.41677584      -0.37038175       2.05778695
N        3.35415264      -3.34628233       3.24529818
C        3.67134952      -3.10429658       4.66326628
C        3.99598441      -4.43210982       5.36002501
C        5.34128047      -5.01100100       4.91758295
N        6.45285752      -4.06027287       5.09796803
C        6.17363216      -2.80934898       4.37101991
C        4.86484134      -2.16325818       4.81821892
C        7.70217181      -4.69033351       4.61669693
C        8.94775723      -3.85686743       4.84007837
C        9.46358498      -3.05835607       3.80513678
C       10.59696416      -2.27145967       4.00827555
C       11.23919635      -2.28385221       5.24560268
C       10.73788959      -3.07765977       6.27751686
Br      11.61816600      -3.10128606       7.94887797
C        9.59468211      -3.85471153       6.08456202
H        0.75426071      -2.59685264      -0.42147385
H        2.19288367      -3.99905557       0.98407639
H        2.62876593      -0.73879183       3.77173583
H        1.22514331       0.65785353       2.35563686
H        3.15921721      -4.32353631       3.04163776
H        2.79207685      -2.67911617       5.16407209
H        3.20360410      -5.16755903       5.17010675
H        4.01857847      -4.26913409       6.44625410
H        5.53188426      -5.91049299       5.51695555
H        5.27253044      -5.33445233       3.87062888
H        6.96164721      -2.07655568       4.57090832
H        6.15249786      -2.98085045       3.28781138
H        4.95251995      -1.87334725       5.87486942
H        4.72583550      -1.23509703       4.25471789
H        7.62592185      -4.94817368       3.55218083
H        7.85323132      -5.64234590       5.14288233
H        8.96857534      -3.03431576       2.83787594
H       10.97635086      -1.64744703       3.20500237
H       12.12506748      -1.67067027       5.39684180
H        9.20051467      -4.45944713       6.89742466
