194
Properties=species:S:1:pos:R:3 pbc="F F F"
C        1.79129686       1.79129686      -1.79129686
C        2.83153394       2.51731911      -1.22674836
C        3.63825415       3.31712022      -2.04408793
C        3.40190940       3.43566687      -3.42423916
C        2.36473329       2.66997295      -3.96697499
C        1.55758486       1.85731184      -3.15975992
N        4.29451616       4.19917803      -4.18175103
C        3.95896658       4.67474495      -5.53491291
C        4.70634801       5.98184301      -5.82964031
C        6.20803063       5.76518369      -6.02636217
N        6.50352537       4.76735182      -7.06993331
C        5.84264626       3.48939198      -6.75167487
C        4.33162416       3.64462005      -6.59978630
C        7.97041812       4.60020910      -7.16828710
C        8.41990168       3.67422033      -8.28029309
C        8.72085305       2.32905148      -8.00688536
C        9.11449684       1.46419899      -9.02771562
C        9.22707930       1.93684554     -10.33443847
C        8.93586880       3.27208571     -10.61482379
C        8.52600723       4.13789734      -9.59976316
H        3.03344068       2.46531915      -0.16059173
H        4.46295338       3.85771646      -1.58505786
H        2.15426948       2.68291489      -5.03182129
H        0.75839028       1.27799545      -3.61625298
H        4.73496795       4.91285643      -3.60627897
H        2.88473632       4.89408119      -5.58615966
H        4.54641659       6.70502137      -5.01954399
H        4.28966683       6.43386950      -6.74014240
H        6.65087509       6.72872817      -6.30944161
H        6.66283179       5.47410544      -5.07038649
H        5.99743093       2.77505548      -7.56633688
H        6.26410291       3.04517311      -5.84159574
H        3.90658083       3.96102943      -7.56283845
H        3.90207339       2.66164544      -6.38164366
H        8.38956615       4.25092271      -6.21549958
H        8.43413026       5.57778602      -7.35625534
H        8.63058702       1.94613827      -6.99375381
H        9.32944740       0.42352151      -8.80554342
H        9.53817237       1.25825016     -11.12586910
H        8.28607924       5.17344281      -9.82757648
C        9.06219827       3.75972615     -11.96384108
C        9.16799921       4.16812503     -13.09364307
Br       9.33907037       4.82847146     -14.92043732
C       -1.79129686      -1.79129686      -1.79129686
C       -1.59804652      -1.81142507      -3.16612982
C       -2.40662397      -2.62788430      -3.96495403
C       -3.43966298      -3.40634385      -3.41580860
C       -3.59032553      -3.38604062      -2.02531508
C       -2.77927230      -2.58067643      -1.21470789
N       -4.15650908      -4.24716680      -4.27176934
C       -5.45561863      -4.82549538      -3.88751043
C       -6.30937077      -5.06980274      -5.13865781
C       -5.78301687      -6.22781996      -5.98873966
N       -5.64464191      -7.47704663      -5.21912196
C       -4.76771828      -7.26119394      -4.05480090
C       -5.28243868      -6.14909739      -3.14449444
C       -5.10242602      -8.52772390      -6.10876440
C       -5.00645877      -9.89827520      -5.46968113
C       -3.79130667     -10.34350503      -4.92197820
C       -3.69915217     -11.59460513      -4.31265416
C       -4.81805280     -12.42433016      -4.25598035
C       -6.02741853     -11.99343788      -4.80192189
C       -6.12927469     -10.73582152      -5.39857151
H       -0.82134181      -1.20913319      -3.62887657
H       -2.22166125      -2.64743701      -5.03662944
H       -4.34167706      -3.99498358      -1.53234501
H       -2.92703100      -2.58831082      -0.13729689
H       -4.14692035      -3.88501528      -5.22216771
H       -5.99845330      -4.11024854      -3.25627533
H       -6.35769571      -4.16099230      -5.75229396
H       -7.33942120      -5.29454975      -4.82970779
H       -6.48983354      -6.38577578      -6.81343555
H       -4.82436803      -5.94182379      -6.44113190
H       -4.73018115      -8.16701704      -3.44162508
H       -3.74181962      -7.03716553      -4.37188660
H       -6.25342177      -6.45042886      -2.72659808
H       -4.59859545      -6.05149013      -2.29527691
H       -4.11684555      -8.24078187      -6.49836102
H       -5.75208781      -8.62755145      -6.98853236
H       -2.91325380      -9.70378679      -4.95343851
H       -2.75827215     -11.92030007      -3.87994012
H       -4.73897514     -13.40070288      -3.78261361
H       -7.07841656     -10.40001219      -5.80866979
C       -7.17896570     -12.85649893      -4.75030088
C       -8.14338646     -13.57931256      -4.70706828
Br      -9.70277326     -14.74804107      -4.63716483
C       -1.79129686       1.79129686       1.79129686
C       -1.52151261       1.90556067       3.14852814
C       -2.33112326       2.72140250       3.94693654
C       -3.43900772       3.40501597       3.41779175
C       -3.66723436       3.29205945       2.04238742
C       -2.85649989       2.48670255       1.23145418
N       -4.15541970       4.25382649       4.26619903
C       -5.50693945       4.73280153       3.92888347
C       -6.30115046       5.00326329       5.21341758
C       -5.79819452       6.23872650       5.96265548
N       -5.77978066       7.44495531       5.11607453
C       -4.95924740       7.20942468       3.91504103
C       -5.45682373       6.01674289       3.10246390
C       -5.25226666       8.57674863       5.90989903
C       -5.27600849       9.90936075       5.18904587
C       -4.12324377      10.38922348       4.54432265
C       -4.14186045      11.60438112       3.86016989
C       -5.31032015      12.36398122       3.82406194
C       -6.45828646      11.89862989       4.46586195
C       -6.44966656      10.67565831       5.13834286
H       -0.68466170       1.37765594       3.59703393
H       -2.08685533       2.81627796       5.00259441
H       -4.48094625       3.82620976       1.56184964
H       -3.06566473       2.42069513       0.16627885
H       -4.06974166       3.95097854       5.23338315
H       -6.04062514       3.95087624       3.37347579
H       -6.25931978       4.13197085       5.87969134
H       -7.35885429       5.14978493       4.95503951
H       -6.46507930       6.40571521       6.81825036
H       -4.79975721       6.03577378       6.37179273
H       -5.01162153       8.07715264       3.25004910
H       -3.90526037       7.06387457       4.18173682
H       -6.46651275       6.23636136       2.72757460
H       -4.81788285       5.90709969       2.22037995
H       -4.23051565       8.37059017       6.25488262
H       -5.85553620       8.69240257       6.82023285
H       -3.20773201       9.80370859       4.55903850
H       -3.24862668      11.95643557       3.35345009
H       -5.31759134      13.31284290       3.29185739
H       -7.35181161      10.31168491       5.62360202
C       -7.66100838      12.68989410       4.43486303
C       -8.66828799      13.35257788       4.40890144
Br     -10.29697392      14.42408150       4.36692374
C        1.79129686      -1.79129686       1.79129686
C        2.57052194      -2.78723002       1.21784946
C        3.38042552      -3.58553754       2.03349925
C        3.40078591      -3.43095604       3.43007348
C        2.62670336      -2.40076544       3.97421242
C        1.82043408      -1.58829431       3.16592823
N        4.28803062      -4.22052539       4.16688921
C        4.14939043      -4.39644834       5.62278567
C        4.71822970      -5.75860462       6.04099700
C        6.24439127      -5.80897710       5.94620812
N        6.89455587      -4.73212543       6.71412920
C        6.40011902      -3.41877833       6.26481577
C        4.88357530      -3.29990121       6.39255401
C        8.35992926      -4.83956283       6.53942223
C        9.16075023      -3.85106931       7.36259556
C        9.61647207      -2.65235372       6.78796411
C       10.33565650      -1.72691253       7.54384242
C       10.62203002      -1.99461130       8.88172199
C       10.17869513      -3.18448473       9.45959844
C        9.44478607      -4.10676858       8.71211308
H        2.56709293      -2.94868997       0.14356867
H        4.00163119      -4.34311037       1.56098615
H        2.62791945      -2.20006618       5.04102003
H        1.22967698      -0.79862682       3.62433491
H        4.48684097      -5.08972647       3.67753591
H        3.08454197      -4.39160524       5.88882997
H        4.28903984      -6.55829201       5.42365011
H        4.41888180      -5.96762015       7.07717679
H        6.57192508      -6.78145071       6.33566908
H        6.54573738      -5.77044502       4.89114131
H        6.82378583      -2.62590637       6.88913108
H        6.70290588      -3.21817622       5.22978966
H        4.60829567      -3.36757876       7.45457428
H        4.58466666      -2.30070390       6.05999193
H        8.63682033      -4.73727019       5.48189792
H        8.68689853      -5.84505956       6.83621354
H        9.39422236      -2.42829737       5.74795938
H       10.66885473      -0.79778698       7.09187062
H       11.18662603      -1.27045382       9.46521177
H        9.08934905      -5.02516215       9.17258734
C       10.48416155      -3.46251712      10.83908684
C       10.73998968      -3.69536925      11.99440838
Br      11.15364212      -4.07187144      13.86246559
C       -0.00445707       0.01189536      -1.78238275
H       -0.66409135       0.67374010      -2.43557963
H        0.65740317      -0.63156657      -2.45157240
C       -0.90989263      -0.90692880      -0.91072765
C        0.90977584       0.90977584      -0.90977584
C       -0.00465871       1.77757030       0.00794375
H       -0.66225468       2.44313916      -0.64384735
H        0.64322798       2.43503045       0.67728295
C       -1.78241447       0.00034974      -0.00472694
H       -2.45427497      -0.65498947       0.64260836
H       -2.43311707       0.67328779      -0.65473579
C       -0.91132561       0.90220522       0.91563759
C       -0.01476271      -0.02253852       1.78660255
H       -0.67934791      -0.69751639       2.42135241
H        0.63392994       0.61504881       2.47327442
C        0.01484550      -1.77751727      -0.01636693
H        0.67870853      -2.42144646      -0.68295456
H       -0.62264859      -2.45592969       0.64226336
C        1.78714474       0.01002794       0.00389507
H        2.44202412       0.67113390       0.66197326
H        2.45385902      -0.65136977      -0.64189061
C        0.91606151      -0.90478549       0.90901405
