186
Properties=species:S:1:pos:R:3 pbc="F F F"
C        1.79129686       1.79129686      -1.79129686
C        2.83153394       2.51731911      -1.22674836
C        3.63825415       3.31712022      -2.04408793
C        3.40190940       3.43566687      -3.42423916
C        2.36473329       2.66997295      -3.96697499
C        1.55758486       1.85731184      -3.15975992
N        4.29451616       4.19917803      -4.18175103
C        3.95896658       4.67474495      -5.53491291
C        4.70634801       5.98184301      -5.82964031
C        6.20803063       5.76518369      -6.02636217
N        6.50352537       4.76735182      -7.06993331
C        5.84264626       3.48939198      -6.75167487
C        4.33162416       3.64462005      -6.59978630
C        7.97041812       4.60020910      -7.16828710
C        8.41990168       3.67422033      -8.28029309
C        8.72085305       2.32905148      -8.00688536
C        9.11449684       1.46419899      -9.02771562
C        9.22707930       1.93684554     -10.33443847
C        8.93586880       3.27208571     -10.61482379
Br       9.10160178       3.91182640     -12.38461393
C        8.52600723       4.13789734      -9.59976316
H        3.03344068       2.46531915      -0.16059173
H        4.46295338       3.85771646      -1.58505786
H        2.15426948       2.68291489      -5.03182129
H        0.75839028       1.27799545      -3.61625298
H        4.73496795       4.91285643      -3.60627897
H        2.88473632       4.89408119      -5.58615966
H        4.54641659       6.70502137      -5.01954399
H        4.28966683       6.43386950      -6.74014240
H        6.65087509       6.72872817      -6.30944161
H        6.66283179       5.47410544      -5.07038649
H        5.99743093       2.77505548      -7.56633688
H        6.26410291       3.04517311      -5.84159574
H        3.90658083       3.96102943      -7.56283845
H        3.90207339       2.66164544      -6.38164366
H        8.38956615       4.25092271      -6.21549958
H        8.43413026       5.57778602      -7.35625534
H        8.63058702       1.94613827      -6.99375381
H        9.32944740       0.42352151      -8.80554342
H        9.53817237       1.25825016     -11.12586910
H        8.28607924       5.17344281      -9.82757648
C       -1.79129686      -1.79129686      -1.79129686
C       -1.42406506      -2.04554803      -3.10598832
C       -2.23512520      -2.86036282      -3.90397427
C       -3.43773595      -3.40339695      -3.42068254
C       -3.76528548      -3.15219913      -2.08419662
C       -2.95503875      -2.34678650      -1.27283136
N       -4.15512323      -4.26284333      -4.25747866
C       -5.56622213      -4.59988670      -4.00251562
C       -6.27497005      -4.91708926      -5.32577201
C       -5.82358263      -6.25001606      -5.92597779
N       -5.97934436      -7.37487734      -4.98658879
C       -5.24079571      -7.10180342      -3.74111399
C       -5.69569972      -5.80623084      -3.07409995
C       -5.49088617      -8.61076299      -5.63726516
C       -5.68945620      -9.86873876      -4.81622014
C       -4.63895810     -10.38154122      -4.03629058
C       -4.81917831     -11.52653135      -3.26070179
C       -6.04886009     -12.18337798      -3.26612524
C       -7.09610251     -11.68511390      -4.04156189
Br      -8.75706772     -12.58504776      -4.05592663
C       -6.92606318     -10.53053589      -4.80706866
H       -0.51071612      -1.62819507      -3.52044038
H       -1.91583388      -3.06685303      -4.92304079
H       -4.65878980      -3.57480833      -1.63540753
H       -3.24277636      -2.17095318      -0.23890917
H       -3.96553504      -4.05389911      -5.23466921
H       -6.07228234      -3.73179425      -3.56090059
H       -6.10330609      -4.11381839      -6.05385748
H       -7.35882009      -4.95465237      -5.15020628
H       -6.43140653      -6.43711817      -6.82052017
H       -4.78147586      -6.16487151      -6.26097635
H       -5.42251205      -7.90079783      -3.01551340
H       -4.16005083      -7.06563498      -3.92518595
H       -6.74767964      -5.91001984      -2.77274922
H       -5.12278610      -5.67149002      -2.15108637
H       -4.43052124      -8.51868701      -5.90678018
H       -6.02663281      -8.75682493      -6.58471389
H       -3.67741803      -9.87527622      -4.01778486
H       -4.00402873     -11.90362331      -2.65086030
H       -6.18220916     -13.07821177      -2.66187070
H       -7.75074478     -10.13900907      -5.39734469
C       -1.79129686       1.79129686       1.79129686
C       -1.45041200       2.00495984       3.12022957
C       -2.26106201       2.82008511       3.91831518
C       -3.43813934       3.40382492       3.41985117
C       -3.73875817       3.19276244       2.07016062
C       -2.92836843       2.38737373       1.25891446
N       -4.15505494       4.26033231       4.26005797
C       -5.55101896       4.63784988       3.97975560
C       -6.28418732       4.94058581       5.29305819
C       -5.81589317       6.24731722       5.93636609
N       -5.92164551       7.39780124       5.02136375
C       -5.15954432       7.13657772       3.78759107
C       -5.62882274       5.86886255       3.07834522
C       -5.41985971       8.60543307       5.71362154
C       -5.56811139       9.88717216       4.91913155
C       -4.48685577      10.39258730       4.17734683
C       -4.62058425      11.55987029       3.42595692
C       -5.83396920      12.24633137       3.41806274
C       -6.91151328      11.75547376       4.15579126
Br      -8.55033436      12.69523287       4.15247488
C       -6.78794199      10.57909908       4.89662666
H       -0.55773448       1.55556123       3.54605585
H       -1.96198844       2.99425973       4.94947952
H       -4.61063568       3.64774917       1.61062081
H       -3.19480963       2.24342018       0.21440891
H       -3.99451769       4.02349549       5.23609017
H       -6.06672291       3.79322711       3.50502716
H       -6.14967384       4.11616743       6.00514069
H       -7.36220190       5.00888176       5.09259508
H       -6.44080387       6.42780903       6.82043198
H       -4.78464168       6.12867762       6.29400442
H       -5.30426745       7.95690903       3.07764679
H       -4.08480815       7.06954828       3.99651532
H       -6.67032013       6.00557288       2.75455570
H       -5.03685203       5.74223759       2.16627288
H       -4.36892209       8.48098481       6.00608154
H       -5.97501319       8.74187748       6.65128096
H       -3.53753356       9.86350235       4.16944320
H       -3.78195216      11.93135321       2.84520697
H       -5.93103456      13.15835874       2.83289832
H       -7.63596633      10.19389123       5.45724098
C        1.79129686      -1.79129686       1.79129686
C        2.75519926      -2.60681153       1.21359063
C        3.56292071      -3.40604949       2.03049210
C        3.40135143      -3.43432677       3.42613723
C        2.44141435      -2.58064975       3.97961712
C        1.63456596      -1.76801012       3.17208054
N        4.29319132      -4.20570298       4.17655092
C        4.01147839      -4.58554624       5.57159982
C        4.70158263      -5.91579403       5.90045466
C        6.22184396      -5.77662936       6.00110317
N        6.63230412      -4.74172816       6.96677821
C        6.02544313      -3.44687034       6.61139965
C        4.50187597      -3.52178517       6.55236937
C        8.10941688      -4.65531325       6.97418419
C        8.67340176      -3.69723726       8.00377608
C        9.03158940      -2.38904899       7.63615151
C        9.53122288      -1.49367988       8.58150870
C        9.69364608      -1.89932647       9.90539076
C        9.34612251      -3.19780190      10.27885388
Br       9.57933766      -3.74757449      12.07112995
C        8.83060745      -4.09286245       9.34019783
H        2.89709808      -2.62554451       0.13670898
H        4.32836257      -4.01833986       1.55902527
H        2.29306302      -2.52255768       5.05338495
H        0.89653314      -1.11875297       3.63735260
H        4.65928766      -4.97451121       3.62030448
H        2.93161391      -4.73865472       5.69470855
H        4.45501698      -6.67196772       5.14399727
H        4.31446335      -6.29184342       6.85737197
H        6.62665599      -6.74730141       6.31508747
H        6.63543254      -5.56574055       5.00615063
H        6.26665762      -2.69895788       7.37320778
H        6.41691668      -3.07885876       5.65509632
H        4.11696555      -3.75926991       7.55421324
H        4.11517583      -2.52894134       6.30124532
H        8.49086272      -4.38414764       5.98097807
H        8.52870467      -5.64643417       7.19303277
H        8.90359782      -2.05796167       6.60891962
H        9.78988973      -0.48115604       8.28746657
H       10.08733802      -1.19744306      10.63751054
H        8.54765597      -5.09850211       9.64094045
C       -0.00445707       0.01189536      -1.78238275
H       -0.66409135       0.67374010      -2.43557963
H        0.65740317      -0.63156657      -2.45157240
C       -0.90989263      -0.90692880      -0.91072765
C        0.90977584       0.90977584      -0.90977584
C       -0.00465871       1.77757030       0.00794375
H       -0.66225468       2.44313916      -0.64384735
H        0.64322798       2.43503045       0.67728295
C       -1.78241447       0.00034974      -0.00472694
H       -2.45427497      -0.65498947       0.64260836
H       -2.43311707       0.67328779      -0.65473579
C       -0.91132561       0.90220522       0.91563759
C       -0.01476271      -0.02253852       1.78660255
H       -0.67934791      -0.69751639       2.42135241
H        0.63392994       0.61504881       2.47327442
C        0.01484550      -1.77751727      -0.01636693
H        0.67870853      -2.42144646      -0.68295456
H       -0.62264859      -2.45592969       0.64226336
C        1.78714474       0.01002794       0.00389507
H        2.44202412       0.67113390       0.66197326
H        2.45385902      -0.65136977      -0.64189061
C        0.91606151      -0.90478549       0.90901405
