165
Properties=species:S:1:pos:R:3 pbc="F F F"
C        0.00000000       0.00000000       0.00000000
C        0.88147871       0.88147871      -0.88147871
C        0.45906947       1.22855127      -2.16060697
C        1.27231984       2.03066990      -2.96955591
C        2.52223412       2.47498200      -2.52417904
C        2.90241779       2.14948095      -1.21227623
C        2.09945284       1.34482239      -0.39855081
N        3.35885106       3.30507194      -3.27541969
C        3.39817311       3.21213828      -4.74603769
C        4.29746257       4.32009134      -5.30490997
C        5.77842828       4.07128055      -5.01461424
N        6.23913132       2.74146477      -5.45034569
C        5.40205159       1.66764460      -4.89102856
C        3.92334258       1.85925636      -5.22682843
C        7.65462711       2.57562883      -5.05441010
C        8.30277983       1.30068392      -5.55133684
C        8.77593457       0.34323389      -4.64022685
C        9.39679880      -0.82229714      -5.09405564
C        9.54769611      -1.03458684      -6.46276768
Br      10.39947509      -2.60860177      -7.07662695
C        9.07947595      -0.09750688      -7.38100415
C        8.45722998       1.06709268      -6.92620973
H       -0.50137078       0.88983618      -2.53849621
H        0.90209848       2.30518779      -3.95243086
H        3.84505259       2.51329344      -0.81075649
H        2.43396822       1.09397627       0.60486188
H        4.28565030       3.35920476      -2.86252239
H        2.39173463       3.38058815      -5.14582028
H        4.00492300       5.29342792      -4.89205417
H        4.15501987       4.38209766      -6.39232356
H        6.35667455       4.84257716      -5.53928898
H        5.96756410       4.21342100      -3.94292596
H        5.70130383       0.70080092      -5.31159390
H        5.52984906       1.59736540      -3.80313769
H        3.79331621       1.79364105      -6.31628017
H        3.34558895       1.03228617      -4.79962198
H        7.75193992       2.63716850      -3.96122084
H        8.24819208       3.40689312      -5.45899511
H        8.66454406       0.49907535      -3.56946833
H        9.75910768      -1.55268788      -4.37514728
H        9.19322266      -0.26200465      -8.44842140
H        8.08748513       1.79512763      -7.64386457
C       -0.88147871      -0.88147871      -0.88147871
C       -1.95588797      -0.32474695      -1.56759279
C       -2.76698286      -1.13633961      -2.36922319
C       -2.53247696      -2.51161611      -2.47730208
C       -1.41360488      -3.03831733      -1.81225276
C       -0.60061172      -2.23689160      -1.00532273
N       -3.28830257      -3.36194798      -3.28909213
C       -4.72489608      -3.11880121      -3.51265179
C       -5.26044840      -4.12380005      -4.53821544
C       -5.34789511      -5.54266665      -3.97376130
N       -6.10202049      -5.61851324      -2.71040806
C       -5.57351594      -4.68072614      -1.70648266
C       -5.54037618      -3.24352361      -2.22552757
C       -6.05912657      -7.01130444      -2.21423503
C       -6.90301772      -7.26815642      -0.98362646
C       -6.30107991      -7.67565614       0.21734075
C       -7.07827571      -7.93774299       1.34746141
C       -8.46247021      -7.79380604       1.28039930
Br      -9.51588380      -8.16035883       2.80874236
C       -9.07593204      -7.38535078       0.09830961
C       -8.29767408      -7.12190632      -1.03095198
H       -2.16983315       0.73775706      -1.49488552
H       -3.58124131      -0.66644046      -2.91203535
H       -1.16865802      -4.09337612      -1.90706838
H        0.24531894      -2.68130553      -0.48709602
H       -3.08388661      -4.33649529      -3.08699555
H       -4.85995377      -2.11852950      -3.93965979
H       -4.62803148      -4.12780656      -5.43456704
H       -6.26224056      -3.80780031      -4.85940022
H       -5.84050030      -6.17238088      -4.72565951
H       -4.33516109      -5.94508148      -3.84366849
H       -6.21364133      -4.68320780      -0.81684951
H       -4.56954807      -4.98095463      -1.37984944
H       -6.56944662      -2.91133373      -2.42245708
H       -5.15130174      -2.58490061      -1.44129475
H       -5.02007876      -7.31187068      -2.01837981
H       -6.42916428      -7.69004745      -2.99486858
H       -5.22147117      -7.79242514       0.28080857
H       -6.59647398      -8.25414315       2.26905005
H      -10.15438039      -7.26955366       0.04429464
H       -8.77707355      -6.79807878      -1.95132499
C       -0.88147871       0.88147871       0.88147871
C       -2.22886298       0.57590443       1.04346030
C       -3.03657935       1.38980861       1.84615769
C       -2.51870319       2.52734070       2.47535127
C       -1.14579181       2.78518835       2.33319481
C       -0.33200082       1.98115674       1.52966848
N       -3.27022100       3.35478052       3.31434117
C       -4.70830557       3.57292329       3.07512021
C       -5.29536343       4.41137295       4.21572751
C       -4.82684560       5.86667719       4.17080027
N       -5.05627213       6.50949748       2.86517217
C       -4.46628576       5.72892884       1.76551014
C       -4.97292529       4.28701462       1.74948746
C       -4.49972811       7.87935913       2.90557880
C       -4.77657538       8.70875894       1.66946627
C       -3.71709425       9.16999659       0.87230446
C       -3.96680832       9.95615941      -0.25441043
C       -5.27891624      10.28510416      -0.58814345
Br      -5.61573660      11.36006595      -2.10830228
C       -6.34257751       9.83166852       0.18872718
C       -6.09194475       9.04412545       1.31446218
H       -2.66234184      -0.29434468       0.55896445
H       -4.07752128       1.10910447       1.97309137
H       -0.69370326       3.63252708       2.84287217
H        0.72281036       2.22177016       1.42412282
H       -2.77279470       4.21715845       3.51742430
H       -5.22668747       2.60735636       3.08409922
H       -5.03002783       3.97415825       5.18621900
H       -6.39152657       4.38971827       4.14819625
H       -5.37444274       6.41879568       4.94530227
H       -3.76494992       5.91518332       4.44377782
H       -4.73929351       6.17299394       0.80141120
H       -3.37020967       5.73691471       1.82322776
H       -6.05509297       4.29104765       1.55709681
H       -4.51514521       3.75238186       0.90997003
H       -3.41677773       7.84299715       3.09055437
H       -4.93402159       8.42655848       3.75350024
H       -2.68874882       8.92029476       1.12404416
H       -3.13486227      10.30660678      -0.85990197
H       -7.36637971      10.08420695      -0.07094726
H       -6.92314887       8.68643061       1.91689784
C        0.88147871      -0.88147871       0.88147871
C        0.32221563      -1.57847691       1.94753516
C        1.13374480      -2.38010442       2.75869644
C        2.51124700      -2.47744352       2.53270463
C        3.04091837      -1.80141100       1.42184560
C        2.23953278      -0.99440364       0.60888963
N        3.36194998      -3.28860147       3.28879123
C        3.11074276      -3.52340586       4.72220046
C        4.11900700      -4.54582014       5.25763675
C        5.53344198      -3.97252512       5.35835597
N        5.59578815      -2.71378076       6.12137287
C        4.65483080      -1.71260328       5.59329066
C        3.22139438      -2.24097748       5.54705551
C        6.98547517      -2.20806336       6.09112752
C        7.22844023      -0.98145838       6.94490199
C        7.63187731       0.22620701       6.35372501
C        7.88119527       1.35281075       7.14017277
C        7.72849293       1.27550927       8.52289330
Br       8.07776121       2.79916106       9.58890012
C        7.32389697       0.08663691       9.12571315
C        7.07322277      -1.03910972       8.33819989
H       -0.74215385      -1.51428624       2.15482922
H        0.66208251      -2.93148385       3.56615077
H        4.09819777      -1.88755071       1.18335404
H        2.68608688      -0.46756593      -0.23057020
H        4.33646017      -3.07865045       3.09226683
H        2.11247981      -3.95796446       4.84769878
H        4.13323815      -5.43786353       4.61930341
H        3.79850148      -4.87581455       6.25512506
H        6.16488909      -4.72349831       5.85015329
H        5.94171322      -3.83296506       4.34923278
H        4.64708125      -0.82728651       6.23933089
H        4.95954374      -1.37725115       4.59355726
H        2.88368436      -2.44701298       6.57254009
H        2.56013320      -1.45855806       5.15880584
H        7.29163663      -2.00324586       5.05544676
H        7.66695815      -2.98662194       6.46050021
H        7.75540785       0.29769058       5.27537047
H        8.19461023       2.27969741       6.66665427
H        7.20128260       0.02462002      10.20297683
H        6.75238862      -1.96481418       8.80927452
