178
Properties=species:S:1:pos:R:3 pbc="F F F"
O        4.55085634       3.74292322     -10.42554121
C        3.83187325       2.90941870      -9.88198186
C        4.23083585       1.43985933      -9.87112632
S        5.31085656       1.09972445      -8.44581570
C        4.15221861       1.21074595      -7.17026699
N        2.87332287       0.94668115      -7.28767122
N        2.28524163       1.23949811      -6.08723632
C        3.21007543       1.70924669      -5.26251535
N        4.42848318       1.65720531      -5.90839191
C        5.72832153       1.98069005      -5.37906520
C        2.94057409       2.16701415      -3.89920610
C        2.13506501       1.36527687      -3.07453853
C        1.79175147       1.79175147      -1.79175147
C        2.23741717       3.02088397      -1.31144609
C        3.03170847       3.83307460      -2.12148465
C        3.37379880       3.40821452      -3.40791073
O        4.12630461       4.22978155      -4.20298006
N        2.63729082       3.16334977      -9.22531116
C        2.01953889       4.41496934      -9.01727356
C        2.53323361       5.62786968      -9.48433793
C        1.87557519       6.83289008      -9.21404756
C        0.69011035       6.83532730      -8.48370067
C        0.16805844       5.62852238      -8.02656569
Br      -1.44714151       5.62423136      -7.04257490
C        0.82544876       4.42375656      -8.28517820
H        4.78342231       1.23109562     -10.79305556
H        3.35040980       0.78921857      -9.87293103
H        6.44126646       1.20789224      -5.67921237
H        5.70162753       2.00749086      -4.28827886
H        6.03350515       2.95178008      -5.77753924
H        1.76521641       0.41145499      -3.44768032
H        1.96311500       3.35795609      -0.31481979
H        3.36591149       4.79273682      -1.73783305
H        4.14923079       5.11862850      -3.80840337
H        2.20613024       2.37326426      -8.74452323
H        3.45388268       5.67552548     -10.05739057
H        2.29563558       7.76806768      -9.57639367
H        0.18563411       7.77562047      -8.27930033
H        0.40387482       3.49316971      -7.91231031
O       -4.71424994     -10.40227954      -3.60279128
C       -3.91183714      -9.87059774      -2.84083894
C       -2.41895758     -10.12907594      -2.99378797
S       -1.70533017      -8.95911960      -4.19194694
C       -1.76808022      -7.50968693      -3.25546440
N       -1.70701848      -7.45371316      -1.94694360
N       -1.88019530      -6.14490109      -1.58687967
C       -2.07673212      -5.42386476      -2.68124060
N       -1.96117638      -6.25965219      -3.77325182
C       -2.01057375      -5.90834559      -5.16915743
C       -2.34033075      -3.98466026      -2.68180332
C       -1.53539955      -3.15991043      -1.87957044
C       -1.79175147      -1.79175147      -1.79175147
C       -2.85263514      -1.22386004      -2.49325204
C       -3.66696619      -2.03104564      -3.28825589
C       -3.41295176      -3.40233668      -3.37463560
O       -4.23982673      -4.18681838      -4.13242110
N       -4.21955750      -9.00005039      -1.80634386
C       -5.49446080      -8.52256328      -1.43475770
C       -6.68365680      -8.89345932      -2.06832510
C       -7.90849163      -8.35516616      -1.65885503
C       -7.95730853      -7.44909969      -0.60273011
C       -6.77683975      -7.08570079       0.03939404
Br      -6.83771849      -5.86309360       1.48114734
C       -5.55039715      -7.61250681      -0.37147955
H       -2.28766592     -11.14836609      -3.37154148
H       -1.90607961     -10.07855436      -2.02792543
H       -1.20513538      -6.42465872      -5.69857697
H       -1.86357995      -4.83468584      -5.29913145
H       -2.98141860      -6.21205220      -5.56935367
H       -0.71554757      -3.59711733      -1.31168682
H       -3.05845612      -0.15888059      -2.41855416
H       -4.49577690      -1.57697878      -3.82372568
H       -5.04097750      -3.68144907      -4.35383609
H       -3.42971059      -8.57032715      -1.32387999
H       -6.69509899      -9.59595199      -2.89574775
H       -8.82241748      -8.64720269      -2.17047676
H       -8.91290856      -7.03683431      -0.29081204
H       -4.63946030      -7.30930750       0.13941295
O       -3.90091279       4.37589316      10.44251481
C       -3.15291028       3.56222217       9.90814137
C       -3.39254637       2.06836200      10.08091312
S       -4.56210776       1.47649232       8.81779662
C       -3.54969337       1.56198653       7.42155166
N       -2.24464012       1.43591776       7.42711736
N       -1.80901505       1.65453868       6.14842233
C       -2.85343889       1.94295701       5.38544157
N       -3.99173363       1.84314495       6.15920181
C       -5.36338079       1.98221163       5.74248436
C       -2.76628407       2.27692165       3.96358862
C       -1.96301547       1.47310841       3.13875654
C       -1.79175147       1.79175147       1.79175147
C       -2.40962473       2.91434701       1.24577549
C       -3.20430728       3.72802736       2.05393308
C       -3.37418297       3.41148653       3.40425455
O       -4.12994523       4.23686683       4.19225415
N       -2.06069774       3.85840620       9.10684781
C       -1.60237260       5.13430677       8.71510242
C       -2.19488864       6.33503674       9.11551583
C       -1.69809092       7.56203116       8.66239074
C       -0.59523517       7.60060637       7.81329678
C        0.00585709       6.40776709       7.42123650
Br       1.51037781       6.45397394       6.27606863
C       -0.49182359       5.17980869       7.86275123
H       -3.82871971       1.90672264      11.07213114
H       -2.45184815       1.50915573      10.05155553
H       -5.95798496       1.18084784       6.18953827
H       -5.44454006       1.89531917       4.65753801
H       -5.73041109       2.95635210       6.07606128
H       -1.45973910       0.60430997       3.56030265
H       -2.26967958       3.16831043       0.19790087
H       -3.67393580       4.60491082       1.61763474
H       -4.28502712       5.07239008       3.71884546
H       -1.59613865       3.06674630       8.66103279
H       -3.05608852       6.35473868       9.77597153
H       -2.17846328       8.48575875       8.97587489
H       -0.21556575       8.55790282       7.46708634
H       -0.01145162       4.25965108       7.53825215
O        6.12965172      -9.94100810       2.64866094
C        5.37823180      -9.40740364       1.83763837
C        3.97245956      -9.95042213       1.61893980
S        2.82559775      -9.20854289       2.82225607
C        2.73914810      -7.60393905       2.19014440
N        2.89797886      -7.28010428       0.92959209
N        2.84670087      -5.91492419       0.85035099
C        2.68888231      -5.42246979       2.07048538
N        2.56564819      -6.48009692       2.94833529
C        2.29289455      -6.43339948       4.36178275
C        2.63325385      -3.99352284       2.38001765
C        1.82359697      -3.17012823       1.58115521
C        1.79175147      -1.79175147       1.79175147
C        2.56619094      -1.21054525       2.79301104
C        3.38237876      -2.01386377       3.59002520
C        3.41739468      -3.39453113       3.37799824
O        4.24729162      -4.16584909       4.14592551
N        5.66855733      -8.29501393       1.06238048
C        6.85624768      -7.53288518       1.06264893
C        7.96732040      -7.81661393       1.86150689
C        9.10050122      -6.99671409       1.82529752
C        9.13823674      -5.89096640       0.97993519
C        8.03865886      -5.61107443       0.17341322
Br       8.08770319      -4.11632622      -0.98436465
C        6.90122233      -6.42052020       0.21264098
H        3.99875800     -11.03386944       1.77494605
H        3.63823955      -9.78459594       0.58972392
H        1.53692818      -7.18435628       4.60708662
H        1.89849080      -5.45546345       4.64344299
H        3.22068469      -6.64079527       4.90134452
H        1.22927196      -3.61216194       0.78291782
H        2.54854417      -0.13515127       2.95219543
H        3.98737934      -1.54710425       4.36199777
H        4.86979223      -3.58726269       4.61920774
H        4.90206643      -7.91713904       0.50471226
H        7.98391753      -8.66712058       2.53576063
H        9.95155406      -7.22678840       2.46175446
H       10.02265910      -5.26031236       0.95758344
H        6.05051835      -6.17935254      -0.42051605
C       -0.00445707       0.01189536      -1.78238275
H       -0.66409135       0.67374010      -2.43557963
H        0.65740317      -0.63156657      -2.45157240
C       -0.90989263      -0.90692880      -0.91072765
C        0.90977584       0.90977584      -0.90977584
C       -0.00465871       1.77757030       0.00794375
H       -0.66225468       2.44313916      -0.64384735
H        0.64322798       2.43503045       0.67728295
C       -1.78241447       0.00034974      -0.00472694
H       -2.45427497      -0.65498947       0.64260836
H       -2.43311707       0.67328779      -0.65473579
C       -0.91132561       0.90220522       0.91563759
C       -0.01476271      -0.02253852       1.78660255
H       -0.67934791      -0.69751639       2.42135241
H        0.63392994       0.61504881       2.47327442
C        0.01484550      -1.77751727      -0.01636693
H        0.67870853      -2.42144646      -0.68295456
H       -0.62264859      -2.45592969       0.64226336
C        1.78714474       0.01002794       0.00389507
H        2.44202412       0.67113390       0.66197326
H        2.45385902      -0.65136977      -0.64189061
C        0.91606151      -0.90478549       0.90901405
