165
Properties=species:S:1:pos:R:3 pbc="F F F"
C        0.00000000       0.00000000       0.00000000
O        3.64095231       2.83301919      -9.51563718
C        2.92196922       1.99951468      -8.97207784
C        3.32093182       0.52995530      -8.96122229
S        4.40095254       0.18982042      -7.53591167
C        3.24231459       0.30084192      -6.26036297
N        1.96341884       0.03677713      -6.37776719
N        1.37533760       0.32959409      -5.17733229
C        2.30017140       0.79934267      -4.35261133
N        3.51857915       0.74730128      -4.99848789
C        4.81841751       1.07078603      -4.46916117
C        2.03067007       1.25711012      -2.98930208
C        1.22516099       0.45537285      -2.16463451
C        0.88184744       0.88184744      -0.88184744
C        1.32751314       2.11097995      -0.40154206
C        2.12180445       2.92317057      -1.21158063
C        2.46389477       2.49831049      -2.49800670
O        3.21640058       3.31987752      -3.29307604
N        1.72738680       2.25344574      -8.31540713
C        1.10963486       3.50506532      -8.10736954
C        1.62332959       4.71796566      -8.57443390
C        0.96567117       5.92298605      -8.30414353
C       -0.21979367       5.92542328      -7.57379665
C       -0.74184559       4.71861836      -7.11666167
C       -0.08445527       3.51385254      -7.37527417
H        3.87351829       0.32119159      -9.88315154
H        2.44050578      -0.12068545      -8.96302701
H        5.53136244       0.29798822      -4.76930834
H        4.79172350       1.09758683      -3.37837483
H        5.12360113       2.04187606      -4.86763522
H        0.85531238      -0.49844903      -2.53777629
H        1.05321097       2.44805207       0.59508424
H        2.45600747       3.88283280      -0.82792903
H        3.23932677       4.20872448      -2.89849934
H        1.29622622       1.46336024      -7.83461921
H        2.54397866       4.76562145      -9.14748655
H        1.38573155       6.85816365      -8.66648965
H       -0.72426992       6.86571645      -7.36939631
H       -0.50602920       2.58326569      -7.00240628
C       -1.97160907       4.71535131      -6.36748139
C       -3.00153599       4.71261516      -5.74004290
Br      -4.66684071       4.70819103      -4.72552793
O       -5.03295881      -1.83997917      -9.11667071
C       -4.37130278      -0.98031290      -8.54194606
C       -5.00876033       0.34562679      -8.14897588
S       -5.80281786       0.19410887      -6.51797563
C       -4.39791742       0.11174243      -5.51734449
N       -3.23945999       0.65844666      -5.79694984
N       -2.36738082       0.29288963      -4.80777279
C       -2.99895181      -0.49946881      -3.95370478
N       -4.31692781      -0.59631645      -4.35112406
C       -5.39743116      -1.27642408      -3.68450947
C       -2.36970132      -1.11985103      -2.78752990
C       -1.55945441      -0.32130834      -1.96440559
C       -0.88184744      -0.88184744      -0.88184744
C       -0.99371050      -2.24216200      -0.60416265
C       -1.78823481      -3.05091578      -1.41740506
C       -2.46515932      -2.49103387      -2.50401878
O       -3.21468923      -3.30251263      -3.31215229
N       -3.03873379      -1.08451338      -8.17299249
C       -2.18231669      -2.19249856      -8.34725447
C       -2.56417470      -3.38652328      -8.96503117
C       -1.66425883      -4.45206383      -9.07647809
C       -0.36861199      -4.32927113      -8.58154314
C        0.02022848      -3.13759537      -7.97606754
C       -0.87689820      -2.07427850      -7.85349475
H       -5.77274710       0.58937922      -8.89449354
H       -4.27616204       1.15895858      -8.16564387
H       -6.28149932      -0.63298128      -3.68417840
H       -5.13478837      -1.48668210      -2.64621470
H       -5.60638297      -2.20552958      -4.22119985
H       -1.44965717       0.73949818      -2.18448065
H       -0.45898096      -2.68155732       0.23435948
H       -1.86050665      -4.11157794      -1.19468470
H       -2.99772657      -4.23070611      -3.11811790
H       -2.65958215      -0.31694319      -7.61768032
H       -3.56300085      -3.52849996      -9.36558586
H       -1.98221755      -5.37740837      -9.55075894
H        0.32385045      -5.16144475      -8.67324854
H       -0.55444315      -1.15485952      -7.37034010
C        1.36147947      -3.00316792      -7.46953517
C        2.48477717      -2.89058493      -7.04531430
Br       4.30105455      -2.70854775      -6.35938504
O       -5.07165814       1.81841597       9.09953458
C       -4.41151544       0.95829435       8.52375195
C       -5.05389084      -0.36212611       8.12034469
S       -5.83842821      -0.19773141       6.48598783
C       -4.42779671      -0.11755061       5.49327338
N       -3.27376135      -0.67189731       5.77609913
N       -2.39449553      -0.30575435       4.79352280
C       -3.01729453       0.49447698       3.94035390
N       -4.33683825       0.59624030       4.33128978
C       -5.41015136       1.28562315       3.66259019
C       -2.37855583       1.11767087       2.78085556
C       -1.56817821       0.31919613       1.95779401
C       -0.88184744       0.88184744       0.88184744
C       -0.98501417       2.24419225       0.61082873
C       -1.77956280       3.05284637       1.42414647
C       -2.46522927       2.49082709       2.50415561
O       -3.21474309       3.30199336       3.31261769
N       -3.07646484       1.05734475       8.16243008
C       -2.21512590       2.15980933       8.34713449
C       -2.59393508       3.35256016       8.96923390
C       -1.68898882       4.41268251       9.09112943
C       -0.39139136       4.28561096       8.60242393
C       -0.00565304       3.09510659       7.99267481
C       -0.90773909       2.03725198       7.85968037
H       -5.82312259      -0.60575213       8.86049095
H       -4.32571472      -1.17942852       8.13656114
H       -6.29760456       0.64691297       3.65414148
H       -5.14086632       1.49998062       2.62683822
H       -5.61703170       2.21297050       4.20311021
H       -1.46518204      -0.74333263       2.17279023
H       -0.44350002       2.68517086      -0.22249208
H       -1.84502130       4.11504476       1.20670322
H       -2.99183059       4.23003290       3.12468710
H       -2.69843369       0.29071961       7.60505236
H       -3.59411541       3.49773333       9.36523793
H       -2.00456024       5.33718099       9.56864362
H        0.30497516       5.11358352       8.70223448
H       -0.58759275       1.11870196       7.37334806
C        1.33754740       2.95621901       7.49255201
C        2.46247777       2.83990067       7.07369916
Br       4.28139503       2.65182375       6.39644953
O        2.24840801      -4.38421281       9.35698787
C        1.46465416      -3.60197793       8.82692965
C        1.46699544      -2.12960169       9.21551229
S        2.68820605      -1.22456556       8.21391303
C        1.87884558      -1.23607895       6.68859495
N        0.57854911      -1.27462306       6.52479099
N        0.33998369      -1.36212851       5.18015178
C        1.50107634      -1.40800421       4.54304485
N        2.50910811      -1.27866061       5.47659959
C        3.92755357      -1.18639243       5.24441870
C        1.63882207      -1.54537074       3.09288945
C        0.83814600      -0.73851247       2.26850987
C        0.88184744      -0.88184744       0.88184744
C        1.71531264      -1.83055498       0.29416754
C        2.51101820      -2.64580499       1.09973246
C        2.46584046      -2.50517640       2.48919512
O        3.22747388      -3.33388033       3.26799993
N        0.53310917      -3.91458105       7.84854945
C        0.31221743      -5.16894434       7.24090795
C        1.01467855      -6.33159913       7.56945147
C        0.75667219      -7.53399750       6.90213107
C       -0.21590172      -7.58813821       5.90718977
C       -0.92670225      -6.43547832       5.58465837
C       -0.66652784      -5.23037911       6.24082018
H        1.74976285      -2.05726738      10.27083118
H        0.46751143      -1.69268650       9.12264940
H        4.34266773      -0.38905487       5.86693641
H        4.12927667      -0.93730647       4.20110203
H        4.38473090      -2.14495222       5.50342928
H        0.16859016      -0.00725491       2.71879457
H        1.74357684      -1.94886372      -0.78626176
H        3.15049883      -3.38707914       0.62919132
H        3.55676019      -4.06821838       2.72157202
H        0.01989124      -3.13141774       7.44289668
H        1.78152223      -6.33789014       8.33767429
H        1.32051349      -8.42616585       7.16370550
H       -0.41031441      -8.52629950       5.39485774
H       -1.22849931      -4.34015651       5.96798557
C       -1.93881265      -6.48833383       4.56170244
C       -2.78645510      -6.53260032       3.70497684
Br      -4.15702126      -6.60417549       2.31972401
