157
Properties=species:S:1:pos:R:3 pbc="F F F"
C        0.00000000       0.00000000       0.00000000
O        3.64095231       2.83301919      -9.51563718
C        2.92196922       1.99951468      -8.97207784
C        3.32093182       0.52995530      -8.96122229
S        4.40095254       0.18982042      -7.53591167
C        3.24231459       0.30084192      -6.26036297
N        1.96341884       0.03677713      -6.37776719
N        1.37533760       0.32959409      -5.17733229
C        2.30017140       0.79934267      -4.35261133
N        3.51857915       0.74730128      -4.99848789
C        4.81841751       1.07078603      -4.46916117
C        2.03067007       1.25711012      -2.98930208
C        1.22516099       0.45537285      -2.16463451
C        0.88184744       0.88184744      -0.88184744
C        1.32751314       2.11097995      -0.40154206
C        2.12180445       2.92317057      -1.21158063
C        2.46389477       2.49831049      -2.49800670
O        3.21640058       3.31987752      -3.29307604
N        1.72738680       2.25344574      -8.31540713
C        1.10963486       3.50506532      -8.10736954
C        1.62332959       4.71796566      -8.57443390
C        0.96567117       5.92298605      -8.30414353
C       -0.21979367       5.92542328      -7.57379665
C       -0.74184559       4.71861836      -7.11666167
Br      -2.35704553       4.71432734      -6.13267087
C       -0.08445527       3.51385254      -7.37527417
H        3.87351829       0.32119159      -9.88315154
H        2.44050578      -0.12068545      -8.96302701
H        5.53136244       0.29798822      -4.76930834
H        4.79172350       1.09758683      -3.37837483
H        5.12360113       2.04187606      -4.86763522
H        0.85531238      -0.49844903      -2.53777629
H        1.05321097       2.44805207       0.59508424
H        2.45600747       3.88283280      -0.82792903
H        3.23932677       4.20872448      -2.89849934
H        1.29622622       1.46336024      -7.83461921
H        2.54397866       4.76562145      -9.14748655
H        1.38573155       6.85816365      -8.66648965
H       -0.72426992       6.86571645      -7.36939631
H       -0.50602920       2.58326569      -7.00240628
O       -3.05685183      -3.39575639      -9.53700047
C       -2.31187044      -2.57980126      -9.00189005
C       -2.56937817      -1.08686009      -9.15587116
S       -3.73145547      -0.52129281      -7.87393635
C       -2.70310051      -0.61077697      -6.48964201
N       -1.39961190      -0.47051087      -6.50784039
N       -0.94782572      -0.69810001      -5.23633824
C       -1.98076001      -1.00599592      -4.46536948
N       -3.12838391      -0.91023859      -5.22574583
C       -4.49386060      -1.06863403      -4.79587007
C       -1.87461370      -1.35423003      -3.04823854
C       -1.07111710      -0.55064818      -2.22340306
C       -0.88184744      -0.88184744      -0.88184744
C       -1.48168506      -2.01686989      -0.34148020
C       -2.27630994      -2.83040347      -1.14984224
C       -2.46420486      -2.50125556      -2.49475156
O       -3.21956986      -3.32628192      -3.28350236
N       -1.20791814      -2.87270280      -8.21561872
C       -0.73171046      -4.14768734      -7.84267191
C       -1.31561846      -5.35040740      -8.24970329
C       -0.80080170      -6.57673275      -7.81526631
C        0.31154732      -6.61245283      -6.97852075
C        0.90402460      -5.41743993      -6.58001911
Br       2.42128444      -5.45961126      -5.45162586
C        0.38844057      -4.19028484      -7.00282716
H       -3.01798380      -0.91933583     -10.14054178
H       -1.63447013      -0.51783268      -9.13054452
H       -5.10184048      -0.26901556      -5.22780296
H       -4.56417720      -0.99427095      -3.70923701
H       -4.85401513      -2.04306274      -5.13603453
H       -0.58179099       0.32802911      -2.64087776
H       -1.32766832      -2.28052763       0.70201715
H       -2.73174541      -3.71695822      -0.71806566
H       -3.36053657      -4.16846837      -2.81754565
H       -0.74707142      -2.08087987      -7.76625437
H       -2.18366890      -5.37236080      -8.90105695
H       -1.27460804      -7.50219911      -8.13357771
H        0.70519671      -7.56923477      -6.64680478
H        0.86240425      -3.26850621      -6.67354081
O       -9.46845952       2.58401581       3.93713336
C       -8.93746842       1.81684640       3.13924692
C       -9.22752989       1.93552504       1.64905449
S       -8.09519840       3.14173203       0.88975420
C       -6.62675960       2.23468089       0.94207900
N       -6.54634545       0.92653206       0.90508565
N       -5.22764494       0.59514391       1.05947514
C       -4.52454303       1.70679703       1.22078534
N       -5.38362917       2.78007441       1.10066475
C       -5.05885234       4.18317212       1.11634024
C       -3.08082671       1.74017651       1.45607904
C       -2.25613720       0.93832342       0.65070773
C       -0.88184744       0.88184744       0.88184744
C       -0.30752882       1.61477868       1.91772766
C       -1.11433847       2.40992710       2.73229008
C       -2.49168602       2.46494996       2.50357599
O       -3.27483018       3.22357602       3.33094794
N       -8.04106997       0.80549601       3.44967369
C       -7.53198704       0.46820033       4.72188234
C       -7.89230613       1.11769980       5.90572322
C       -7.32265989       0.74272193       7.12741893
C       -6.39530653      -0.29463976       7.17875949
C       -6.04214645      -0.95266583       6.00395382
Br      -4.79058512      -2.36919237       6.06855994
C       -6.60036825      -0.57609576       4.78039894
H      -10.25635927       2.29097955       1.53052259
H       -9.16795997       0.96094935       1.15393801
H       -5.60081841       4.68669283       0.31114776
H       -3.99096749       4.33084683       0.94587084
H       -5.35163083       4.59640166       2.08507992
H       -2.69780695       0.34619174      -0.14935906
H        0.76246763       1.56460363       2.10404281
H       -0.65500797       2.97015660       3.54160472
H       -2.75859548       3.47031283       4.11764227
H       -7.61723294       0.31599697       2.66097575
H       -8.61052412       1.93153732       5.91502522
H       -7.60704922       1.26644414       8.03689149
H       -5.95872481      -0.57979833       8.13191636
H       -6.30477720      -1.09881599       3.87368156
O        9.30686995      -4.54190170       2.14083704
C        8.74470677      -3.86068050       1.28817447
C        8.48501194      -4.42801688      -0.10091940
S        6.90724825      -5.33579993      -0.11636355
C        5.80739539      -4.00864767      -0.01252358
N        6.04032769      -2.79891775      -0.46128227
N        4.97067264      -2.02122474      -0.10963340
C        4.11292522      -2.76131429       0.57788589
N        4.59452348      -4.05398731       0.61585753
C        3.96217031      -5.22080412       1.17539027
C        2.86742165      -2.25477304       1.15488758
C        2.04359050      -1.44618921       0.35538864
C        0.88184744      -0.88184744       0.88184744
C        0.52423215      -1.10668948       2.20911353
C        1.33645683      -1.90098552       3.01911330
C        2.50214592      -2.46442854       2.49363751
O        3.30595411      -3.21446290       3.30893713
N        8.27725960      -2.56570570       1.45327437
C        8.31817928      -1.77946373       2.62442671
C        8.88170314      -2.20278638       3.83123963
C        8.85982778      -1.37438398       4.95858899
C        8.28442621      -0.10850278       4.88649726
C        7.73250373       0.32241080       3.68334151
Br       6.95839915       2.04474375       3.57629728
C        7.74296350      -0.50409938       2.55760857
H        9.29658288      -5.12260073      -0.34132219
H        8.50351217      -3.64071349      -0.86137833
H        4.06590789      -6.05573426       0.47701685
H        2.89649301      -5.04207271       1.32911945
H        4.45020806      -5.45876258       2.12414176
H        2.32440002      -1.24816113      -0.67792150
H       -0.37665779      -0.66010326       2.62273333
H        1.05039426      -2.06182418       4.05455085
H        3.03685037      -3.07624002       4.23346020
H        7.74818568      -2.17086944       0.67515054
H        9.34110543      -3.18073716       3.93524407
H        9.29362785      -1.72466893       5.89208807
H        8.27271304       0.52846177       5.76659157
H        7.29962756      -0.15033492       1.62968029
