186
Properties=species:S:1:pos:R:3 pbc="F F F"
O        4.55085634       3.74292322     -10.42554121
C        3.83187325       2.90941870      -9.88198186
C        4.23083585       1.43985933      -9.87112632
S        5.31085656       1.09972445      -8.44581570
C        4.15221861       1.21074595      -7.17026699
N        2.87332287       0.94668115      -7.28767122
N        2.28524163       1.23949811      -6.08723632
C        3.21007543       1.70924669      -5.26251535
N        4.42848318       1.65720531      -5.90839191
C        5.72832153       1.98069005      -5.37906520
C        2.94057409       2.16701415      -3.89920610
C        2.13506501       1.36527687      -3.07453853
C        1.79175147       1.79175147      -1.79175147
C        2.23741717       3.02088397      -1.31144609
C        3.03170847       3.83307460      -2.12148465
C        3.37379880       3.40821452      -3.40791073
O        4.12630461       4.22978155      -4.20298006
N        2.63729082       3.16334977      -9.22531116
C        2.01953889       4.41496934      -9.01727356
C        2.53323361       5.62786968      -9.48433793
C        1.87557519       6.83289008      -9.21404756
C        0.69011035       6.83532730      -8.48370067
C        0.16805844       5.62852238      -8.02656569
C        0.82544876       4.42375656      -8.28517820
H        4.78342231       1.23109562     -10.79305556
H        3.35040980       0.78921857      -9.87293103
H        6.44126646       1.20789224      -5.67921237
H        5.70162753       2.00749086      -4.28827886
H        6.03350515       2.95178008      -5.77753924
H        1.76521641       0.41145499      -3.44768032
H        1.96311500       3.35795609      -0.31481979
H        3.36591149       4.79273682      -1.73783305
H        4.14923079       5.11862850      -3.80840337
H        2.20613024       2.37326426      -8.74452323
H        3.45388268       5.67552548     -10.05739057
H        2.29563558       7.76806768      -9.57639367
H        0.18563411       7.77562047      -8.27930033
H        0.40387482       3.49316971      -7.91231031
C       -1.06170505       5.62525533      -7.27738541
C       -2.09163197       5.62251918      -6.64994692
Br      -3.75693669       5.61809505      -5.63543196
O       -2.88967077      -5.70433066     -10.12531934
C       -2.09194523      -4.93697954      -9.59434904
C       -1.98633221      -3.49208328     -10.06340600
S       -3.20595608      -2.46353500      -9.18690563
C       -2.48445176      -2.43035196      -7.61842784
N       -1.19973932      -2.53122470      -7.37671122
N       -1.04161317      -2.55275354      -6.01760934
C       -2.23692013      -2.49673701      -5.44818034
N       -3.18233017      -2.36673419      -6.44501602
C       -4.60360019      -2.18252511      -6.30195148
C       -2.46265144      -2.54091508      -4.00322781
C       -1.66292630      -1.73268589      -3.17926823
C       -1.79175147      -1.79175147      -1.79175147
C       -2.71074549      -2.65667969      -1.20232204
C       -3.50705162      -3.47244454      -2.00677156
C       -3.37675859      -3.41632268      -3.39684278
O       -4.14137650      -4.24581548      -4.17187423
N       -1.23601179      -5.24277395      -8.54716601
C       -1.12313406      -6.46962568      -7.85902205
C       -1.87332674      -7.60883447      -8.16328002
C       -1.72371348      -8.78244549      -7.41635386
C       -0.81263441      -8.83192299      -6.36458092
C       -0.05438290      -7.70349153      -6.06527209
C       -0.20661708      -6.52641345      -6.80135298
H       -2.20544175      -3.46624678     -11.13588495
H       -0.96961530      -3.10653942      -9.93640468
H       -4.93606363      -1.40131614      -6.99099130
H       -4.84787159      -1.86184221      -5.28768344
H       -5.10118551      -3.12781884      -6.53382013
H       -0.92768330      -1.06735015      -3.62931827
H       -2.80574240      -2.70962832      -0.12052016
H       -4.21402809      -4.14824228      -1.53421100
H       -4.54296981      -4.92743837      -3.60585448
H       -0.70098979      -4.46680428      -8.15612367
H       -2.59545917      -7.61768835      -8.97365121
H       -2.32357627      -9.65580316      -7.66071750
H       -0.70230985      -9.74773048      -5.79051458
H        0.39064370      -5.65423072      -6.54576782
C        0.89462637      -7.75223520      -4.98332687
C        1.68942164      -7.79305803      -4.07719774
Br       2.97453836      -7.85906508      -2.61206359
O      -10.43631936       3.83258389       4.45041751
C       -9.90265875       3.08142437       3.63919070
C      -10.09498107       3.30204942       2.14479100
S       -8.85203417       4.47895145       1.52541108
C       -7.44346166       3.48338206       1.60638783
N       -7.43556800       2.17699644       1.49511080
N       -6.14960594       1.75833494       1.70403517
C       -5.39538008       2.81451419       1.97194320
N       -6.18314455       3.94280186       1.86813398
C       -5.78055206       5.32055601       1.98696871
C       -3.96895137       2.74720710       2.29063587
C       -3.14412820       1.94417538       1.48657684
C       -1.79175147       1.79175147       1.79175147
C       -1.24023529       2.42849967       2.90101227
C       -2.04817698       3.22324693       3.71484381
C       -3.40383016       3.37426929       3.41182460
O       -4.19104080       4.13046190       4.23756351
N       -9.08567618       2.00176234       3.93851322
C       -8.67437204       1.56245977       5.21494998
C       -9.06795366       2.16407609       6.41341147
C       -8.59539038       1.68644020       7.64068224
C       -7.73339627       0.59373802       7.68200404
C       -7.34797998      -0.01645761       6.49162415
C       -7.80895532       0.46218100       5.26324719
H      -11.09286697       3.72514958       1.98955695
H      -10.06120571       2.35542717       1.59592652
H       -6.24336191       5.90090712       1.18410204
H       -4.69765010       5.41294489       1.88680225
H       -6.10728925       5.69488552       2.96064971
H       -3.56967601       1.42630577       0.62836994
H       -0.18803679       2.30328098       3.14457310
H       -1.60740405       3.70773150       4.58134581
H       -3.71004217       4.30038706       5.06583343
H       -8.64354621       1.53326244       3.14710908
H       -9.73792150       3.01794447       6.43093276
H       -8.90389796       2.17374893       8.56245003
H       -7.37210971       0.22893509       8.63951011
H       -7.48939397      -0.02496245       4.34492332
C       -6.46273931      -1.15157597       6.52977235
C       -5.72135026      -2.10223759       6.56172147
Br      -4.52258686      -3.63937703       6.61338049
O       10.42245559      -4.57569755       3.72116762
C        9.87846793      -3.85779117       2.88701471
C        9.86066909      -4.26215288       1.41899953
S        8.43011149      -5.33811831       1.08816690
C        7.15928621      -4.17434126       1.19960409
N        7.28044530      -2.89687817       0.93035177
N        6.08329485      -2.30325573       1.22542547
C        5.25690556      -3.22326919       1.70166273
N        5.89806526      -4.44425495       1.65176017
C        5.36513274      -5.74090829       1.98203575
C        3.89631606      -2.94700537       2.16347291
C        3.07166278      -2.14141107       1.36180657
C        1.79175147      -1.79175147       1.79175147
C        1.31437252      -2.23107064       3.02430406
C        2.12447744      -3.02535419       3.83643609
C        3.40803825      -3.37379814       3.40808765
O        4.20336383      -4.12620636       4.22949602
N        9.22717677      -2.65984222       3.13893276
C        9.02608563      -2.03668765       4.38900851
C        9.49575095      -2.54761828       5.60207199
C        9.23238246      -1.88449891       6.80563145
C        8.50644706      -0.69632525       6.80636602
C        8.04676462      -0.17705189       5.59933000
C        8.29845734      -0.83985879       4.39606738
H       10.77976181      -4.81893385       1.20887783
H        9.86331621      -3.38415641       0.76508679
H        5.65976019      -6.45782298       1.21078790
H        4.27456001      -5.71005877       2.01277846
H        5.76608198      -6.04397155       2.95277095
H        3.44262256      -1.77648933       0.40523983
H        0.32002985      -1.95181693       3.36404410
H        1.74316178      -3.35457011       4.79874947
H        3.81201321      -4.14437148       5.11987797
H        8.74505470      -2.22982696       2.34903607
H       10.06556176      -3.47020925       5.65102772
H        9.59664506      -2.30243606       7.74101579
H        8.30741561      -0.18761186       7.74552745
H        7.92369579      -0.42035197       3.46530708
C        7.30213900       1.05546871       5.59426541
C        6.67851504       2.08770471       5.59002381
Br       5.67016784       3.75674303       5.58316551
C       -0.00445707       0.01189536      -1.78238275
H       -0.66409135       0.67374010      -2.43557963
H        0.65740317      -0.63156657      -2.45157240
C       -0.90989263      -0.90692880      -0.91072765
C        0.90977584       0.90977584      -0.90977584
C       -0.00465871       1.77757030       0.00794375
H       -0.66225468       2.44313916      -0.64384735
H        0.64322798       2.43503045       0.67728295
C       -1.78241447       0.00034974      -0.00472694
H       -2.45427497      -0.65498947       0.64260836
H       -2.43311707       0.67328779      -0.65473579
C       -0.91132561       0.90220522       0.91563759
C       -0.01476271      -0.02253852       1.78660255
H       -0.67934791      -0.69751639       2.42135241
H        0.63392994       0.61504881       2.47327442
C        0.01484550      -1.77751727      -0.01636693
H        0.67870853      -2.42144646      -0.68295456
H       -0.62264859      -2.45592969       0.64226336
C        1.78714474       0.01002794       0.00389507
H        2.44202412       0.67113390       0.66197326
H        2.45385902      -0.65136977      -0.64189061
C        0.91606151      -0.90478549       0.90901405
