186
Properties=species:S:1:pos:R:3 pbc="F F F"
C        1.79157493       1.79157493      -1.79157493
C        2.78951687       1.20878686      -2.57068504
C        3.59478331       2.01206154      -3.38313614
C        3.40716696       3.40397912      -3.40960030
C        2.39101630       3.97577428      -2.63209510
C        1.58651282       3.17031995      -1.82024016
C        4.23053637       4.29096883      -4.28316033
O        3.81812261       5.39430817      -4.63063363
N        5.46137632       3.79102127      -4.64490325
N        6.28335662       4.55859516      -5.48189015
C        7.63012157       4.58442893      -5.09107698
N        8.42505593       5.47242005      -5.68975272
C        9.72252762       5.46851294      -5.37752610
C       10.55043727       6.35488025      -6.05651820
C       11.92161683       6.43356758      -5.80322211
C       12.47507651       5.62549683      -4.82348749
Br      14.32545874       5.71881312      -4.45697790
C       11.66820876       4.73751964      -4.11636116
C       10.28112461       4.61957973      -4.41159139
C        9.36464919       3.72920311      -3.82191567
N        8.05658785       3.70531091      -4.17207074
C        9.68887917       2.74017057      -2.76689930
C        8.84554587       2.60985242      -1.64512783
C        9.10855709       1.68055153      -0.63510662
C       10.22899525       0.86137990      -0.72148722
C       11.07012064       0.95585944      -1.82670763
C       10.79176866       1.87254271      -2.84688442
H        2.94072307       0.13199900      -2.56341079
H        4.33931698       1.52978043      -4.00999947
H        2.22079012       5.05053933      -2.65996554
H        0.80156369       3.62689253      -1.22238338
H        5.93760950       3.03537335      -4.15398096
H        5.95359182       5.50746815      -5.66203354
H       10.11535676       7.00169111      -6.81698278
H       12.53382716       7.12943952      -6.37060973
H       12.12013206       4.13327345      -3.33469949
H        7.96221117       3.24134118      -1.55642002
H        8.43649538       1.59884205       0.21561771
H       10.44048982       0.14260043       0.06620021
H       11.94044609       0.30806352      -1.90154728
H       11.44801201       1.88967466      -3.71468627
C       -1.79157493      -1.79157493      -1.79157493
C       -1.90636999      -1.51071871      -3.15190007
C       -2.70806423      -2.31888240      -3.96303437
C       -3.40443826      -3.40632527      -3.40998284
C       -3.26926341      -3.68618066      -2.04344162
C       -2.46660881      -2.87654476      -1.23391936
C       -4.24970953      -4.30617225      -4.24878374
O       -4.50280896      -5.45240461      -3.88785084
N       -4.72108636      -3.75639597      -5.41981851
N       -5.50523994      -4.54798266      -6.27061933
C       -6.62653781      -3.88656047      -6.79252922
N       -7.54240870      -4.63038607      -7.41443393
C       -8.58407220      -4.01113456      -7.97335990
C       -9.49640238      -4.79144948      -8.67398385
C      -10.62201574      -4.24342110      -9.29296968
C      -10.85809505      -2.88276172      -9.18320407
Br     -12.37745154      -2.11895000     -10.00484822
C       -9.96932909      -2.07733992      -8.47542056
C       -8.79463388      -2.62748258      -7.89017928
C       -7.78619700      -1.92743332      -7.20213765
N       -6.70754885      -2.55293360      -6.67348705
C       -7.77146554      -0.46559026      -6.95889325
C       -7.45082179       0.02884124      -5.67854556
C       -7.41295110       1.39998550      -5.41124964
C       -7.70210931       2.31131976      -6.42107282
C       -8.00494940       1.85215756      -7.69989588
C       -8.02071981       0.47897061      -7.96944658
H       -1.36770374      -0.67544904      -3.59298009
H       -2.74998453      -2.10245847      -5.02665389
H       -3.78612164      -4.53870027      -1.60647309
H       -2.37027505      -3.10517463      -0.17538992
H       -4.77168840      -2.75462471      -5.60065070
H       -5.78010049      -5.45380661      -5.88918641
H       -9.32101758      -5.86360481      -8.74940826
H      -11.29956196      -4.88922584      -9.84508860
H      -10.18964161      -1.01769547      -8.38076792
H       -7.22098602      -0.66679032      -4.87219603
H       -7.15655735       1.75181882      -4.41498119
H       -7.68080188       3.37841969      -6.21450785
H       -8.22006603       2.56370951      -8.49370038
H       -8.22098385       0.15844205      -8.98983114
C       -1.79157493       1.79157493       1.79157493
C       -1.33244145       3.04540214       2.19114518
C       -2.13898672       3.85743660       2.99355767
C       -3.40542869       3.41016663       3.40515106
C       -3.86086011       2.15321804       2.98480753
C       -3.05246581       1.34263073       2.18197639
C       -4.30471949       4.25899137       4.24095467
O       -5.51913829       4.07644047       4.24748565
N       -3.67734637       5.22614257       4.99381190
N       -4.45858629       6.07640274       5.78885290
C       -3.93864488       6.29376498       7.07321763
N       -4.73203816       6.89294280       7.96224774
C       -4.23308727       7.16599304       9.16948636
C       -5.04932841       7.84878675      10.06372055
C       -4.62559349       8.18027618      11.35253685
C       -3.36260221       7.79234369      11.76911494
Br      -2.76935068       8.22197321      13.50992586
C       -2.52730090       7.09448105      10.90030761
C       -2.93910737       6.80363033       9.56955803
C       -2.18162255       6.16215526       8.57199015
N       -2.67537184       5.92527805       7.33331962
C       -0.79537853       5.66441359       8.73615692
C       -0.45182193       4.37981420       8.26888997
C        0.84679742       3.87857431       8.39243836
C        1.83386210       4.65158213       8.99414235
C        1.52755790       5.93104799       9.44919762
C        0.23128162       6.43820880       9.30426860
H       -0.35652451       3.40534611       1.87426225
H       -1.77445471       4.84563500       3.25900717
H       -4.84898231       1.80369705       3.27861563
H       -3.41827310       0.36985598       1.86271051
H       -2.68546881       5.21353270       5.22796230
H       -5.44642388       5.82726952       5.84940010
H       -6.04812606       8.14209193       9.74381266
H       -5.29137145       8.73021140      12.01229356
H       -1.55168711       6.77791285      11.25850504
H       -1.20902081       3.75661839       7.79433317
H        1.08340290       2.88597776       8.01714486
H        2.84326870       4.26166591       9.09849283
H        2.30097393       6.54142079       9.90961004
H        0.03888686       7.45713313       9.63412666
C        1.79157493      -1.79157493       1.79157493
C        2.40588663      -2.91731163       1.24579051
C        3.21805405      -3.72352740       2.04839955
C        3.40923865      -3.40772843       3.40377929
C        2.79709238      -2.26518771       3.93660558
C        1.98521189      -1.45999822       3.13186281
C        4.28900961      -4.23032721       4.28532871
O        4.78890098      -3.75349319       5.30067024
N        4.47672580      -5.53457778       3.88599726
N        5.30781087      -6.36333813       4.65269294
C        4.79513036      -7.65261472       4.85788241
N        5.40563929      -8.41792684       5.76366257
C        4.97230798      -9.66955594       5.92670275
C        5.65899483     -10.47614897       6.82669192
C        5.28568367     -11.79907604       7.07364681
C        4.17770866     -12.32051986       6.42583232
Br       3.64813252     -14.10440605       6.74871118
C        3.46099528     -11.53193514       5.52915915
C        3.87318400     -10.20144415       5.23766758
C        3.28293524      -9.31700847       4.31582427
N        3.75188203      -8.06155949       4.12052799
C        2.10320968      -9.62088128       3.47185809
C        1.05961725      -8.68005262       3.36085624
C       -0.06341540      -8.92238227       2.56524837
C       -0.17144556     -10.11873738       1.86457055
C        0.85218839     -11.05905338       1.94144594
C        1.98540449     -10.80381707       2.72197422
H        2.27047092      -3.16901273       0.19664921
H        3.71648458      -4.57275561       1.58985669
H        2.95449653      -1.99702992       4.97976854
H        1.51663437      -0.57628595       3.55791928
H        3.86549345      -6.02622784       3.23524252
H        5.61786522      -5.96537710       5.53985118
H        6.52159295     -10.06410453       7.34833317
H        5.86236828     -12.39856269       7.77294543
H        2.58030570     -11.95434710       5.05345220
H        1.12287522      -7.73605722       3.90103994
H       -0.84993886      -8.17507910       2.49457947
H       -1.04724714     -10.31346926       1.25066792
H        0.77472255     -11.99026364       1.38507071
H        2.78351803     -11.54343304       2.72542187
C       -0.00445707       0.01189536      -1.78238275
H       -0.66409135       0.67374010      -2.43557963
H        0.65740317      -0.63156657      -2.45157240
C       -0.90989263      -0.90692880      -0.91072765
C        0.90977584       0.90977584      -0.90977584
C       -0.00465871       1.77757030       0.00794375
H       -0.66225468       2.44313916      -0.64384735
H        0.64322798       2.43503045       0.67728295
C       -1.78241447       0.00034974      -0.00472694
H       -2.45427497      -0.65498947       0.64260836
H       -2.43311707       0.67328779      -0.65473579
C       -0.91132561       0.90220522       0.91563759
C       -0.01476271      -0.02253852       1.78660255
H       -0.67934791      -0.69751639       2.42135241
H        0.63392994       0.61504881       2.47327442
C        0.01484550      -1.77751727      -0.01636693
H        0.67870853      -2.42144646      -0.68295456
H       -0.62264859      -2.45592969       0.64226336
C        1.78714474       0.01002794       0.00389507
H        2.44202412       0.67113390       0.66197326
H        2.45385902      -0.65136977      -0.64189061
C        0.91606151      -0.90478549       0.90901405
