173
Properties=species:S:1:pos:R:3 pbc="F F F"
C        0.00000000       0.00000000       0.00000000
C        0.88167090       0.88167090      -0.88167090
C        1.87961284       0.29888283      -1.66078101
C        2.68487929       1.10215752      -2.47323212
C        2.49726293       2.49407510      -2.49969627
C        1.48111227       3.06587026      -1.72219108
C        0.67660880       2.26041593      -0.91033613
C        3.32063234       3.38106481      -3.37325630
O        2.90821858       4.48440415      -3.72072961
N        4.55147230       2.88111724      -3.73499923
N        5.37345260       3.64869114      -4.57198612
C        6.72021755       3.67452491      -4.18117296
N        7.51515191       4.56251603      -4.77984869
C        8.81262360       4.55860892      -4.46762207
C        9.64053324       5.44497623      -5.14661417
C       11.01171280       5.52366356      -4.89331808
C       11.56517249       4.71559281      -3.91358347
C       10.75830473       3.82761562      -3.20645714
C        9.37122059       3.70967571      -3.50168736
C        8.45474516       2.81929909      -2.91201165
N        7.14668383       2.79540689      -3.26216672
C        8.77897515       1.83026655      -1.85699528
C        7.93564184       1.69994839      -0.73522380
C        8.19865306       0.77064751       0.27479741
C        9.31909123      -0.04852413       0.18841681
C       10.16021662       0.04595541      -0.91680361
C        9.88186464       0.96263868      -1.93698039
H        2.03081905      -0.77790502      -1.65350677
H        3.42941296       0.61987640      -3.10009545
H        1.31088609       4.14063530      -1.75006152
H       -0.10834034       2.71698851      -0.31247935
H        5.02770548       2.12546933      -3.24407693
H        5.04368779       4.59756413      -4.75212951
H        9.20545273       6.09178708      -5.90707876
H       11.62392313       6.21953549      -5.46070571
H       11.21022803       3.22336943      -2.42479547
H        7.05230714       2.33143716      -0.64651600
H        7.52659135       0.68893803       1.12552173
H        9.53058579      -0.76730359       0.97610424
H       11.03054207      -0.60184050      -0.99164326
H       10.53810798       0.97977064      -2.80478224
C       12.97600459       4.78674222      -3.63413661
C       14.15757647       4.84632985      -3.40009987
Br      16.06807828       4.94267802      -3.02168225
C       -0.88167090      -0.88167090      -0.88167090
C       -0.84685595      -0.72614121      -2.26627953
C       -1.64834253      -1.53517157      -3.07675483
C       -2.49422514      -2.49694709      -2.49986207
C       -2.50929498      -2.65269127      -1.10718736
C       -1.70656891      -1.84244486      -0.29834708
C       -3.34541166      -3.39568146      -3.33386034
O       -3.74056004      -4.47399444      -2.89879785
N       -3.65459117      -2.92332631      -4.58967129
N       -4.43353756      -3.72136774      -5.43922456
C       -5.43380324      -3.01697447      -6.12513771
N       -6.35901818      -3.73355348      -6.76494497
C       -7.28117889      -3.08167231      -7.47600339
C       -8.19944470      -3.84243629      -8.19024265
C       -9.20643743      -3.25955294      -8.96270408
C       -9.31710318      -1.87909204      -8.99815355
C       -8.42037581      -1.09064321      -8.28135847
C       -7.36193475      -1.68329378      -7.53735513
C       -6.35513883      -1.01187847      -6.81903859
N       -5.39423405      -1.67620848      -6.13381490
C       -6.21918436       0.45960253      -6.70665515
C       -5.96699238       1.04639406      -5.45021572
C       -5.81911662       2.42826593      -5.30365248
C       -5.92666234       3.25854790      -6.41403585
C       -6.15789249       2.70527961      -7.67036275
C       -6.28386127       1.31919457      -7.81681701
H       -0.19193523       0.01067384      -2.72515941
H       -1.57401570      -1.42097025      -4.15439887
H       -3.14392080      -3.40894871      -0.64871341
H       -1.72770136      -1.97408786       0.78066169
H       -3.59064425      -1.94354375      -4.86306374
H       -4.82856216      -4.55744190      -5.00737738
H       -8.12377366      -4.92816464      -8.15238027
H       -9.89204661      -3.89336615      -9.51875157
H       -8.54351578      -0.01143428      -8.30344287
H       -5.87902812       0.41529562      -4.56652779
H       -5.61926550       2.85164204      -4.32238418
H       -5.81954120       4.33458095      -6.30221771
H       -6.23082652       3.35207519      -8.54159350
H       -6.42286609       0.91949098      -8.81928576
C      -10.35260828      -1.25997613      -9.78429901
C      -11.21984380      -0.74146656     -10.44269583
Br     -12.62209030       0.09691955     -11.50726780
C       -0.88167090       0.88167090       0.88167090
C       -0.36637897       2.06487399       1.40802373
C       -1.17221575       2.87717279       2.21088038
C       -2.49516568       2.50025632       2.49561230
C       -3.00540357       1.31514533       1.94862470
C       -2.19759266       0.50417360       1.14559459
C       -3.39317917       3.35388345       3.32789083
O       -4.61442828       3.26510449       3.23381956
N       -2.75812706       4.21389296       4.19556875
N       -3.53550745       5.06278979       4.99583263
C       -3.10153817       5.14750272       6.32687453
N       -3.91611539       5.74093303       7.20046821
C       -3.49313115       5.88813583       8.45758761
C       -4.32487075       6.56610518       9.34114771
C       -3.97878657       6.77138607      10.67852181
C       -2.78237336       6.25893636      11.15303904
C       -1.93470449       5.56270554      10.29496746
C       -2.26281023       5.39991258       8.91986084
C       -1.47862581       4.77490996       7.93252012
N       -1.89144592       4.66552199       6.64728952
C       -0.14808601       4.16178223       8.15636874
C        0.13789997       2.89117709       7.61753691
C        1.38416622       2.28419234       7.79447705
C        2.37469865       2.93428514       8.52256381
C        2.12633176       4.19779540       9.05151201
C        0.88445910       4.81201239       8.85393042
H        0.65414952       2.37049901       1.19007131
H       -0.75963949       3.81303000       2.57671533
H       -4.03555584       1.02246751       2.14355957
H       -2.60620638      -0.41241142       0.72733256
H       -1.79058145       4.10851640       4.49815389
H       -4.54031419       4.88655007       4.96651718
H       -5.27270949       6.95727592       8.97433316
H       -4.65235838       7.32238777      11.32941819
H       -1.01451956       5.14745074      10.69642263
H       -0.62311555       2.36336309       7.04378166
H        1.57753957       1.30563939       7.36190783
H        3.34275123       2.46158320       8.66834599
H        2.90364720       4.71261998       9.61137204
H        0.74041777       5.81659233       9.24648630
C       -2.41108690       6.45538527      12.53041125
C       -2.10013449       6.61991123      13.68396047
Br      -1.59735075       6.88593579      15.54915200
C        0.88167090      -0.88167090       0.88167090
C        1.53974255      -1.97612451       0.32340964
C        2.35199950      -2.78208957       1.12617985
C        2.49943613      -2.49767990       2.49391827
C        1.84341691      -1.38603222       3.03972448
C        1.03152946      -0.58102839       2.23480301
C        3.37763667      -3.32036571       3.37695108
O        3.83810294      -2.85795053       4.41729886
N        3.61036456      -4.60819174       2.94903246
N        4.44305970      -5.43523704       3.71583312
C        3.95977887      -6.74240405       3.87373249
N        4.56674741      -7.51548102       4.77528821
C        4.16285162      -8.78184236       4.89416061
C        4.84719626      -9.59403908       5.79088831
C        4.50300080     -10.93232764       5.99336601
C        3.42651764     -11.46491072       5.30292039
C        2.71256128     -10.67157797       4.40823824
C        3.09656222      -9.32353381       4.16248763
C        2.50708104      -8.43046145       3.24851341
N        2.94730341      -7.15849804       3.09845598
C        1.35819009      -8.74225796       2.36578893
C        0.29312013      -7.82622147       2.25147244
C       -0.80201371      -8.07633452       1.42018236
C       -0.85987854      -9.25598566       0.68604318
C        0.18611929     -10.17111829       0.76573806
C        1.29147701      -9.90744105       1.58256565
H        1.43837497      -2.20319701      -0.73515118
H        2.88463292      -3.60556133       0.65919056
H        1.96647420      -1.14178406       4.09332466
H        0.52865259       0.27854486       2.67101979
H        3.02956195      -5.09802405       2.26966574
H        4.71925190      -5.05315243       4.62097711
H        5.68466560      -9.17378761       6.34586536
H        5.07710932     -11.53506744       6.69198757
H        1.85609660     -11.10388420       3.89841212
H        0.31713950      -6.89563898       2.81748182
H       -1.60608066      -7.34808925       1.34799906
H       -1.71394006      -9.45695824       0.04415978
H        0.14798149     -11.08886177       0.18350157
H        2.10866665     -10.62591132       1.58808289
C        3.05288881     -12.84114883       5.50284577
C        2.73997466     -13.99374825       5.67028328
Br       2.23401895     -15.85740403       5.94101557
