145
Properties=species:S:1:pos:R:3 pbc="F F F"
C        0.00000000       0.00000000       0.00000000
C        0.88224641       0.88224641      -0.88224641
C        0.54035577       2.22022875      -1.08093993
C        1.34063584       3.02732813      -1.89062596
C        2.47827696       2.49432188      -2.49869844
C        2.81692333       1.15332605      -2.28977317
C        4.02451821       0.57366226      -2.91084872
N        4.73702628       1.23704204      -3.76441254
C        5.87460832       0.61546879      -4.30406459
C        7.08187700       1.33401759      -4.28918956
C        8.26681895       0.81852948      -4.83208933
C        8.16313731      -0.44764974      -5.38860966
O        9.15185924      -1.17635513      -5.98028935
C        8.52711313      -2.33843975      -6.36153781
N        7.24215304      -2.39500945      -6.05546390
C        6.99811742      -1.19273566      -5.44016654
C        5.82126563      -0.65588311      -4.90268463
C        9.35218619      -3.33439412      -7.04097317
C        8.79070465      -4.57237877      -7.39425706
C        9.54935964      -5.54475782      -8.05120408
C       10.88255559      -5.29052553      -8.36581024
C       11.44925024      -4.06569861      -8.01970050
Br      13.25777710      -3.71800236      -8.44989332
C       10.69635455      -3.09166021      -7.36155497
C        2.01985550       0.34030411      -1.48002378
H       -0.34458207       2.64240389      -0.61168384
H        1.07964638       4.07105790      -2.04845559
H        3.09954780       3.12730483      -3.12909681
H        4.28799559      -0.45629575      -2.60513509
H        7.09234788       2.32836867      -3.84576639
H        9.19814476       1.37039426      -4.82466004
H        4.89583185      -1.21505110      -4.96128456
H        7.74849319      -4.78422195      -7.15665201
H        9.09781504      -6.49747920      -8.31758981
H       11.46791654      -6.04882957      -8.87929367
H       11.15734946      -2.14127644      -7.10247406
H        2.27665531      -0.70301271      -1.31940382
C       -0.88224641      -0.88224641      -0.88224641
C       -0.87163766      -2.26595723      -0.70392955
C       -1.67177767      -3.07514222      -1.51167003
C       -2.47829939      -2.49877868      -2.49421922
C       -2.48716342      -1.11020012      -2.66265901
C       -3.34464210      -0.47888684      -3.68550025
N       -4.01516252      -1.18225805      -4.54106030
C       -4.81238217      -0.50441128      -5.47734825
C       -6.14253411      -0.92909783      -5.63345220
C       -7.01166871      -0.34233375      -6.56343530
C       -6.46576930       0.68298818      -7.32131612
O       -7.08375911       1.41744182      -8.28947617
C       -6.11030361       2.28354996      -8.72345754
N       -4.94742654       2.15292483      -8.10810578
C       -5.16088960       1.13171908      -7.21637777
C       -4.30389274       0.52505872      -6.28923312
C       -6.48558410       3.21305241      -9.78623354
C       -5.55751242       4.17108577     -10.22615629
C       -5.88103978       5.07061911     -11.24538523
C       -7.13969682       5.02264358     -11.84078706
C       -8.06773772       4.07619381     -11.41170821
Br      -9.77518936       4.00755378     -12.22203249
C       -7.75032210       3.17659827     -10.39252548
C       -1.68850340      -0.29475536      -1.85692462
H       -0.24548984      -2.72241016       0.05839434
H       -1.66830156      -4.15411417      -1.37674414
H       -3.10077658      -3.13349225      -3.12168061
H       -3.38454127       0.62658085      -3.67887450
H       -6.50568335      -1.74722852      -5.01357106
H       -8.03631291      -0.66871054      -6.68817561
H       -3.27234100       0.84604977      -6.21577407
H       -4.56840338       4.21873994      -9.77125981
H       -5.14962686       5.80534088     -11.57363967
H       -7.38584674       5.72254045     -12.63507434
H       -8.48852137       2.44410084     -10.07412655
H       -1.68871437       0.78369989      -1.98803193
C       -0.88224641       0.88224641       0.88224641
C       -2.26265351       0.68031723       0.89855371
C       -3.07196706       1.48790199       1.69872088
C       -2.49904750       2.49386702       2.47838277
C       -1.11363319       2.68597452       2.46041484
C       -0.48561083       3.73403196       3.28938642
N       -1.19216673       4.58898030       3.95733383
C       -0.51715294       5.55025924       4.72672952
C       -0.92183731       5.72207289       6.06117395
C       -0.33655029       6.67674461       6.90414286
C        0.66612409       7.44237913       6.32784219
O        1.39413644       8.43338740       6.91654250
C        2.23597954       8.86513466       5.92105607
N        2.09628156       8.22767186       4.77121719
C        1.09439135       7.32256040       5.01737925
C        0.48937085       6.37059818       4.18683981
C        3.15323144       9.94985125       6.26214544
C        4.08764043      10.38988157       5.31034179
C        4.97480551      11.42966186       5.60094954
C        4.93792494      12.04580320       6.84996204
C        4.01490844      11.61680964       7.80135092
Br       3.96127524      12.45520728       9.49573602
C        3.12778409      10.57717999       7.51685341
C       -0.29807123       1.88052704       1.66158512
H       -2.71643840      -0.10033839       0.29340565
H       -4.14835260       1.33464558       1.71616169
H       -3.13384353       3.12111930       3.10098661
H        0.62032439       3.74685660       3.31030271
H       -1.72286467       5.09475882       6.44885944
H       -0.64759671       6.81359816       7.93200420
H        0.79403063       6.28480023       3.15129570
H        4.12634839       9.91885215       4.32841950
H        5.69123334      11.75766194       4.85149706
H        5.62808213      12.85598418       7.07047858
H        2.41352498      10.25918744       8.27288462
H        0.77780828       2.02990085       1.64095384
C        0.88224641      -0.88224641       0.88224641
C        2.26877515      -0.73289413       0.83985516
C        3.07780204      -1.54081885       1.63996904
C        2.49844686      -2.49463690       2.47821353
C        1.10721679      -2.63405082       2.51875493
C        0.47317297      -3.62597075       3.40988548
N        1.17277372      -4.48213367       4.08357347
C        0.49272445      -5.38779581       4.91362144
C        0.94162734      -5.52563026       6.23782654
C        0.35424070      -6.42541767       7.13777939
C       -0.69734850      -7.17281484       6.62863088
O       -1.43834199      -8.11280130       7.28133414
C       -2.33306876      -8.54841483       6.33486512
N       -2.21410377      -7.95963742       5.15707385
C       -1.17080067      -7.08511314       5.33123582
C       -0.56333221      -6.18832887       4.44307049
C       -3.27597942      -9.58386292       6.75088174
C       -4.26177288     -10.02258902       5.85176679
C       -5.17491542     -11.01618009       6.21454122
C       -5.11296508     -11.58677255       7.48403283
C       -4.13897113     -11.15864637       8.38357688
Br      -4.05142809     -11.93538772      10.10570843
C       -3.22564070     -10.16497869       8.02691132
C        0.29192272      -1.82797159       1.72028908
H        2.72753705       0.00693810       0.18890670
H        4.15898706      -1.42837948       1.61179333
H        3.13305409      -3.12234976       3.10054559
H       -0.63086812      -3.59562955       3.47207350
H        1.77952379      -4.91559128       6.57136786
H        0.69918101      -6.53606679       8.15795127
H       -0.90407329      -6.12919127       3.41694733
H       -4.32066874      -9.58697714       4.85461486
H       -5.93114891     -11.34391997       5.50515460
H       -5.82359193     -12.36122453       7.76074803
H       -2.47169006      -9.84690631       8.74333083
H       -0.78873596      -1.93667098       1.74511139
