141
Properties=species:S:1:pos:R:3 pbc="F F F"
C        0.00000000       0.00000000       0.00000000
C        0.87865018       0.87865018      -0.87865018
C        0.73557077       2.25780231      -0.86849536
N        1.48581839       3.09320493      -1.62607711
C        2.41533155       2.51863919      -2.42992515
C        2.62777620       1.14628309      -2.51088639
C        1.83906700       0.31221882      -1.71114401
C        3.63390359       0.54227490      -3.41370739
O        3.79926252      -0.66269339      -3.51457162
O        4.29981994       1.54064929      -4.10504372
C        5.29923463       1.23176581      -5.04963164
C        5.34931539       2.06349610      -6.17100789
C        6.34005738       1.87330056      -7.13528461
C        7.29214965       0.87021214      -6.94982029
O        8.31420379       0.61370719      -7.89088904
C        8.95216417       1.62569326      -8.58620207
O        8.69041259       2.81803642      -8.58326409
C       10.03431192       1.03041152      -9.39362109
C       10.47501280       1.71482806     -10.51952162
N       11.46644075       1.26891464     -11.33094915
C       12.05150758       0.09551730     -10.98847754
C       11.68697247      -0.64699672      -9.87505871
Br      12.57025034      -2.25994867      -9.46020613
C       10.66040465      -0.17594540      -9.06243067
C        7.23201055       0.03352391      -5.82586411
Cl       8.38271667      -1.23378847      -5.59342417
C        6.24054210       0.22168276      -4.86252190
H       -0.00209524       2.74948586      -0.23995041
H        2.98736601       3.23151365      -3.01806804
H        1.97354861      -0.76680986      -1.74428342
H        4.61997010       2.85975360      -6.29711589
H        6.35496984       2.51601665      -8.01081285
H       10.03335951       2.66363788     -10.81712098
H       12.84514866      -0.23122402     -11.65496737
H       10.36677300      -0.73491454      -8.17802405
H        6.21448944      -0.41472043      -3.98339649
C       -0.87865018      -0.87865018      -0.87865018
C       -1.31693104      -0.42974713      -2.11519026
N       -2.09960621      -1.16285606      -2.94263817
C       -2.45994714      -2.39625410      -2.50769465
C       -2.07353046      -2.92917148      -1.28224374
C       -1.26094918      -2.14744518      -0.45403546
C       -2.49926597      -4.27000987      -0.82061004
O       -2.19237036      -4.72728105       0.26851066
O       -3.28880810      -4.86804676      -1.78865809
C       -3.84359542      -6.14819160      -1.58884506
C       -5.12116682      -6.34318990      -2.11946266
C       -5.73188910      -7.59426464      -2.02248881
C       -5.04184362      -8.64810933      -1.42222913
O       -5.60399615      -9.93626237      -1.27854150
C       -6.40767034     -10.50651243      -2.24987673
O       -6.82335962      -9.99231493      -3.27603855
C       -6.73040482     -11.88705493      -1.84088478
C       -7.87907327     -12.47865765      -2.35163155
N       -8.27109684     -13.74245117      -2.05275653
C       -7.46775424     -14.44780171      -1.21994647
C       -6.29585184     -13.94369690      -0.67548571
Br      -5.22539889     -15.00331029       0.45820138
C       -5.91826742     -12.64128597      -0.98733653
C       -3.76267546      -8.44414522      -0.88457790
Cl      -2.90445800      -9.72782479      -0.11006958
C       -3.15237059      -7.19314171      -0.97923445
H       -1.05041056       0.55436780      -2.49129827
H       -3.08929886      -2.94114008      -3.20650875
H       -0.93625792      -2.52711890       0.51235466
H       -5.64336862      -5.52476472      -2.60870625
H       -6.73285691      -7.72562432      -2.42331811
H       -8.54066516     -11.94364618      -3.02980703
H       -7.80635451     -15.45770743      -1.00483008
H       -4.99761086     -12.23009035      -0.58218132
H       -2.15250266      -7.04894737      -0.58171548
C       -0.87865018       0.87865018       0.87865018
C       -0.95674247       0.65953549       2.24559048
N       -1.71926117       1.40552370       3.08031556
C       -2.43589620       2.41049596       2.51750373
C       -2.42496084       2.70250345       1.15748139
C       -1.62261188       1.91564772       0.32417022
C       -3.23431879       3.79122942       0.56433767
O       -3.25556471       4.02824957      -0.63267352
O       -3.94494006       4.44032918       1.56024371
C       -4.81349195       5.50855440       1.25858573
C       -5.97695596       5.57802202       2.02884140
C       -6.87252458       6.63221720       1.84390078
C       -6.57682383       7.62564993       0.90970832
O       -7.44367308       8.71335405       0.66177289
C       -8.16058978       9.33407027       1.66939945
O       -8.24152483       9.00736685       2.84282142
C       -8.87117703      10.49253435       1.09463315
C      -10.00907087      10.95973691       1.74055470
N      -10.73734782      12.01978576       1.30917096
C      -10.29542362      12.64760064       0.19247817
C       -9.16239507      12.26024345      -0.50760406
Br      -8.60630477      13.20528540      -2.04108237
C       -8.43631981      11.16371432      -0.05314421
C       -5.41105295       7.54627890       0.13406673
Cl      -5.04220477       8.74949220      -1.04934460
C       -4.51633717       6.49152613       0.31688345
H       -0.39945992      -0.13943318       2.72731429
H       -3.03219164       2.97571742       3.22903863
H       -1.58538656       2.11101339      -0.74537779
H       -6.18918352       4.81454542       2.77311066
H       -7.78185621       6.66271094       2.43723218
H      -10.38529124      10.48462090       2.64420623
H      -10.89705672      13.49549687      -0.12366157
H       -7.53835664      10.85027151      -0.57874564
H       -3.60440080       6.44937103      -0.27060633
C        0.87865018      -0.87865018       0.87865018
C        1.03255648      -2.22839545       0.60091650
N        1.79943531      -3.06213163       1.34353349
C        2.43452554      -2.51781460       2.41155575
C        2.33658626      -1.17752522       2.77083419
C        1.54024831      -0.34285073       1.97933079
C        3.02214504      -0.61245983       3.95528101
O        2.91063909       0.55444251       4.29494418
O        3.75354645      -1.60365282       4.58831367
C        4.48746473      -1.33253048       5.76063687
C        4.51702884      -2.35996080       6.70682974
C        5.26414858      -2.20868920       7.87580478
C        6.00155622      -1.04018214       8.07044372
O        6.76887608      -0.81482052       9.23510342
C        7.47554934      -1.82477034       9.86373982
O        7.47474901      -3.01673035       9.60023375
C        8.25255474      -1.23494005      10.97084974
C        8.62628427      -2.05417822      12.02889999
N        9.34668729      -1.62458033      13.09503692
C        9.72218539      -0.32249171      13.09082532
C        9.40738964       0.56317016      12.07081498
Br       9.98997291       2.35490583      12.13544072
C        8.65866056       0.10357230      10.99180166
C        5.96171572      -0.00917342       7.12050944
Cl       6.84282867       1.45773589       7.35725958
C        5.21330765      -0.15880676       5.95263235
H        0.53442966      -2.69670242      -0.24379105
H        3.03338054      -3.22876898       2.97479817
H        1.43717775       0.71176322       2.22560763
H        3.96074791      -3.27853196       6.53755972
H        5.26255235      -3.00862399       8.61062300
H        8.34933781      -3.10597154      12.05880902
H       10.30229801      -0.01123294      13.95536107
H        8.41116876       0.77670417      10.17541793
H        5.20613054       0.63388734       5.21092230
