149
Properties=species:S:1:pos:R:3 pbc="F F F"
C        0.00000000       0.00000000       0.00000000
C        0.87865018       0.87865018      -0.87865018
C        0.73557077       2.25780231      -0.86849536
N        1.48581839       3.09320493      -1.62607711
C        2.41533155       2.51863919      -2.42992515
C        2.62777620       1.14628309      -2.51088639
C        1.83906700       0.31221882      -1.71114401
C        3.63390359       0.54227490      -3.41370739
O        3.79926252      -0.66269339      -3.51457162
O        4.29981994       1.54064929      -4.10504372
C        5.29923463       1.23176581      -5.04963164
C        5.34931539       2.06349610      -6.17100789
C        6.34005738       1.87330056      -7.13528461
C        7.29214965       0.87021214      -6.94982029
O        8.31420379       0.61370719      -7.89088904
C        8.95216417       1.62569326      -8.58620207
O        8.69041259       2.81803642      -8.58326409
C       10.03431192       1.03041152      -9.39362109
C       10.47501280       1.71482806     -10.51952162
N       11.46644075       1.26891464     -11.33094915
C       12.05150758       0.09551730     -10.98847754
C       11.68697247      -0.64699672      -9.87505871
C       10.66040465      -0.17594540      -9.06243067
C        7.23201055       0.03352391      -5.82586411
Cl       8.38271667      -1.23378847      -5.59342417
C        6.24054210       0.22168276      -4.86252190
H       -0.00209524       2.74948586      -0.23995041
H        2.98736601       3.23151365      -3.01806804
H        1.97354861      -0.76680986      -1.74428342
H        4.61997010       2.85975360      -6.29711589
H        6.35496984       2.51601665      -8.01081285
H       10.03335951       2.66363788     -10.81712098
H       12.84514866      -0.23122402     -11.65496737
H       10.36677300      -0.73491454      -8.17802405
H        6.21448944      -0.41472043      -3.98339649
C       12.36166741      -1.87905581      -9.55817209
C       12.92672443      -2.91090530      -9.29277955
Br      13.84037383      -4.57931865      -8.86366226
C       -0.87865018      -0.87865018      -0.87865018
C       -0.54576656      -2.20435344      -1.11174844
N       -1.28537989      -3.03678022      -1.88294032
C       -2.40335199      -2.51423827      -2.44630563
C       -2.81451975      -1.19656946      -2.27385647
C       -2.03032137      -0.36507951      -1.46702894
C       -4.02744644      -0.64391955      -2.91851989
O       -4.37259508       0.52059146      -2.79913714
O       -4.65132493      -1.63112188      -3.66306614
C       -5.82348296      -1.35992753      -4.39722159
C       -5.93840109      -2.02497283      -5.62044546
C       -7.08879566      -1.86560127      -6.39424563
C       -8.12823570      -1.06537592      -5.91857046
O       -9.31467221      -0.84950765      -6.65462016
C       -9.90999137      -1.84493320      -7.40913494
O       -9.48826400      -2.96791837      -7.63553074
C      -11.18054249      -1.32635329      -7.95144876
C      -11.69828206      -1.91004898      -9.10103143
N      -12.86011273      -1.52216773      -9.68402408
C      -13.53920223      -0.51795667      -9.07834352
C      -13.10596193       0.11190928      -7.92098181
C      -11.90611544      -0.29501269      -7.34576179
C       -8.00376126      -0.39421729      -4.69342002
Cl      -9.26632686       0.62549911      -4.10152462
C       -6.85309088      -0.55135170      -3.92030417
H        0.34489809      -2.65262592      -0.67961320
H       -2.95844186      -3.22163863      -3.05686720
H       -2.31686154       0.67198209      -1.30614271
H       -5.13569445      -2.66740429      -5.97374086
H       -7.15581236      -2.37441537      -7.35157160
H      -11.18322499      -2.72427036      -9.60662302
H      -14.46779797      -0.23462414      -9.56646990
H      -11.55372525       0.17584632      -6.43200359
H       -6.77373170      -0.04740214      -2.96203167
C      -13.88490209       1.16248255      -7.31836415
C      -14.53726448       2.04233766      -6.81367186
Br     -15.59207928       3.46498896      -5.99762712
C       -0.87865018       0.87865018       0.87865018
C       -2.21241790       0.56215785       1.08729268
N       -3.04525642       1.30260805       1.85723597
C       -2.51694245       2.40884834       2.43810510
C       -1.19355026       2.80838312       2.28301229
C       -0.35908252       2.01813229       1.48521502
C       -0.64680507       4.03331134       2.90976947
O        0.50361368       4.40710298       2.74765145
O       -1.63437105       4.65792895       3.65321295
C       -1.37924311       5.86274250       4.33864648
C       -2.43666075       6.77517019       4.37198844
C       -2.30070319       7.97315447       5.07478489
C       -1.11590525       8.23093821       5.76533863
O       -0.90513100       9.42772847       6.48594055
C       -1.91209517      10.04650026       7.20546407
O       -3.09381268       9.74414827       7.25375215
C       -1.33498809      11.19809302       7.92526343
C       -2.17694743      12.24076183       8.29165322
N       -1.76036136      13.34424905       8.96169413
C       -0.44725966      13.39550825       9.29273452
C        0.46169255      12.39501605       8.98171096
C        0.01464735      11.27672134       8.28481593
C       -0.05512347       7.31454203       5.72173308
Cl       1.43103088       7.62905731       6.54432593
C       -0.18952411       6.11766452       5.01755813
H       -2.66788891      -0.31387556       0.63332767
H       -3.22656362       2.96845207       3.04193200
H        0.68261820       2.29524330       1.33839706
H       -3.36671867       6.55707368       3.85304724
H       -3.12472979       8.68085084       5.07621870
H       -3.23767083      12.22672817       8.04971937
H       -0.14664429      14.28897607       9.83327165
H        0.70660624      10.47493843       8.04155034
H        0.62721581       5.40254875       5.00783256
C        1.84171829      12.50433334       9.37816864
C        2.99748984      12.59588657       9.71020196
Br       4.86627469      12.74392040      10.24707174
C        0.87865018      -0.87865018       0.87865018
C        2.22962406      -0.60436111       1.02788326
N        3.06342931      -1.34717068       1.79450045
C        2.51787982      -2.41179561       2.43422046
C        1.17628882      -2.76749539       2.34116146
C        0.34160078      -1.97588163       1.54494742
C        0.60980232      -3.94833940       3.03174416
O       -0.55838584      -4.28496193       2.92456467
O        1.60127541      -4.58212043       3.76211711
C        1.32890347      -5.75154799       4.50018063
C        2.35369551      -6.70060466       4.52951921
C        2.20122091      -7.86699108       5.28043057
C        1.03428693      -8.05615021       6.02174494
O        0.80779343      -9.21795017       6.79305642
C        1.81796466      -9.84745990       7.49863494
O        3.01066859      -9.58738818       7.49365633
C        1.22719850     -10.95063400       8.28051204
C        2.04446949     -12.00996056       8.65493243
N        1.61388910     -13.07278548       9.37962996
C        0.31290382     -13.06374974       9.75884887
C       -0.57072990     -12.04210254       9.44366181
C       -0.11019434     -10.96656893       8.69051533
C        0.00589769      -7.10337134       5.98212955
Cl      -1.45914339      -7.33337033       6.86812543
C        0.15672717      -5.93808184       5.22993774
H        2.69891748       0.23756265       0.52598620
H        3.22893546      -2.97536089       3.03265135
H       -0.71400769      -2.21941751       1.44561234
H        3.27114405      -6.53557536       3.97012018
H        2.99903612      -8.60410964       5.27865358
H        3.09537139     -12.04369053       8.37505645
H        0.00083632     -13.92571821      10.34233749
H       -0.78169040     -10.14896511       8.44260781
H       -0.63385287      -5.19411752       5.22290086
C       -1.93820339     -12.08625166       9.89273542
C       -3.08346243     -12.12322654      10.26883458
Br      -4.93524945     -12.18301180      10.87695509
