157
Properties=species:S:1:pos:R:3 pbc="F F F"
C        0.00000000       0.00000000       0.00000000
C        0.88142319       0.88142319      -0.88142319
C        0.50471875       1.14528555      -2.19417167
C        1.31707669       1.94747100      -3.00067084
C        2.50831544       2.51428538      -2.50412707
C        2.86987164       2.21983523      -1.17505728
C        2.06213726       1.41057285      -0.36972851
C        3.39615676       3.38231136      -3.41845607
O        2.50476273       4.07322355      -4.32743196
C        4.16039516       4.48566738      -2.60660860
O        5.24272707       4.35993592      -2.04399752
O        3.37917350       5.61526771      -2.52612996
C        3.90395958       6.70038748      -1.73832697
C        3.25704625       7.97987557      -2.25449264
C        3.55417291       6.47211182      -0.27240915
C        4.36596243       2.52544286      -4.25303040
C        4.32599837       2.52825448      -5.66086000
C        5.20755236       1.74605017      -6.41415895
C        6.14523800       0.94590252      -5.77010433
C        6.21042170       0.92200780      -4.38119646
C        5.32843262       1.70573460      -3.63045383
H       -0.41188237       0.72872457      -2.60381981
H        1.01361729       2.12645220      -4.03187776
H        3.79428449       2.60092005      -0.74361312
H        2.36831593       1.19540578       0.65115569
H        2.10794547       4.79121159      -3.79869415
H        4.98986919       6.78163217      -1.86808432
H        2.16479452       7.92423593      -2.18624826
H        3.49774699       8.12721327      -3.31300829
H        3.60044542       8.85453811      -1.69398428
H        2.47440724       6.33686342      -0.14485529
H        3.87975608       7.31184365       0.34873594
H        4.02936410       5.56075773       0.10448465
H        3.60086609       3.14190420      -6.19298609
H        5.15028666       1.77098282      -7.49917032
H        6.94234807       0.30205757      -3.87022419
H        5.41173437       1.67238883      -2.54576847
C        7.05332647       0.14008982      -6.54446938
C        7.81385057      -0.53477830      -7.19300011
Br       9.04355371      -1.62598299      -8.24161945
C       -0.88142319      -0.88142319      -0.88142319
C       -2.18362389      -0.48831155      -1.17224054
C       -2.99028524      -1.30059876      -1.97433453
C       -2.50403382      -2.50847743      -2.51421664
C       -1.18575602      -2.88621154      -2.19279659
C       -0.38045077      -2.07841464      -1.38357321
C       -3.41866913      -3.39558226      -3.38267280
O       -4.30219208      -2.50114470      -4.10208144
C       -2.60186423      -4.19016189      -4.46064502
O       -2.05875461      -5.27908896      -4.30881694
O       -2.49102186      -3.42854097      -5.60100835
C       -1.69469996      -3.98305647      -6.66491761
C       -2.18013852      -3.34869023      -7.96258571
C       -0.22714566      -3.65285213      -6.41869608
C       -4.28213446      -4.33820424      -2.52409699
C       -5.68892111      -4.27605540      -2.55013633
C       -6.46853564      -5.13293046      -1.76629538
C       -5.85233543      -6.06770948      -0.94119994
C       -4.46520356      -6.15443424      -0.89398815
C       -3.68811367      -5.29710825      -1.67939912
H       -2.58503632       0.44121470      -0.77684039
H       -4.01353235      -0.98379878      -2.17461613
H       -0.76323890      -3.82332243      -2.55225633
H        0.63186095      -2.39718930      -1.14723765
H       -3.75587671      -2.12430521      -4.81766929
H       -1.84057091      -5.06794489      -6.73106988
H       -2.09525865      -2.25690054      -7.92311952
H       -3.23992164      -3.57497305      -8.12307386
H       -1.61146684      -3.71489611      -8.82260487
H       -0.08442939      -2.57320446      -6.29849209
H        0.40188152      -4.00164375      -7.24310155
H        0.12762821      -4.11924857      -5.49401682
H       -6.19957906      -3.55255054      -3.18362679
H       -7.55195877      -5.05893914      -1.80954190
H       -3.97590266      -6.88429617      -0.25443100
H       -2.60556728      -5.39698885      -1.62733555
C       -6.65380957      -6.95040057      -0.13367554
C       -7.32504416      -7.68965435       0.54262614
Br      -8.41037373      -8.88496520       1.63614876
C       -0.88142319       0.88142319       0.88142319
C       -2.20523948       0.52394180       1.11499469
C       -3.01155611       1.33637467       1.91728775
C       -2.50423665       2.50813320       2.51435803
C       -1.16381952       2.85072000       2.25022462
C       -0.35846227       2.04305645       1.44091990
C       -3.41819785       3.39680759       3.38191875
O       -4.35527936       2.50987802       4.04026085
C       -2.61300753       4.12643308       4.51323053
O       -2.02902562       5.20045427       4.41718062
O       -2.56694559       3.32388990       5.62973568
C       -1.78972527       3.81490106       6.73804770
C       -2.34044079       3.15477089       7.99620278
C       -0.32637088       3.44271531       6.52960769
C       -4.21969846       4.39668902       2.52804822
C       -5.62783602       4.38221159       2.50506524
C       -6.35101264       5.29106679       1.72568206
C       -5.67596210       6.23102116       0.95426159
C       -4.28590883       6.27142856       0.95628857
C       -3.56532306       5.36215765       1.73714034
H       -2.62352499      -0.37751875       0.67465577
H       -4.05107861       1.04852183       2.07234682
H       -0.72296274       3.76022634       2.65562858
H        0.67144531       2.33445919       1.24955213
H       -3.84679545       2.09081778       4.76023798
H       -1.90157694       4.90136575       6.83664299
H       -2.29065937       2.06262541       7.92199393
H       -3.39699966       3.41196103       8.12900785
H       -1.78985608       3.47232214       8.88678960
H       -0.21563351       2.36339416       6.37709828
H        0.28514701       3.74197898       7.38603182
H        0.07538565       3.92714843       5.63387441
H       -6.18382806       3.65603365       3.09589467
H       -7.43714536       5.25304675       1.73024769
H       -3.75082857       7.00489411       0.35890715
H       -2.47890009       5.42636106       1.72463053
C       -6.41929750       7.16720459       0.15138359
C       -7.04184089       7.95125821      -0.52102673
Br      -8.04844091       9.21900661      -1.60825734
C        0.88142319      -0.88142319       0.88142319
C        0.41796536      -1.30282813       2.12338248
C        1.22985691      -2.10453529       2.93082633
C        2.50925983      -2.51383012       2.50363794
C        2.95618271      -2.06185635       1.24672509
C        2.14808935      -1.25283917       0.44151010
C        3.39285980      -3.38458165       3.41948274
O        2.49583255      -4.23567927       4.17390641
C        4.32841784      -4.33294962       2.59130369
O        5.43882804      -4.05882769       2.14900478
O        3.66996119      -5.51381434       2.33679564
C        4.36424221      -6.46747904       1.51095279
C        3.80094081      -7.84271164       1.84776200
C        4.12433002      -6.13046146       0.04390240
C        4.19829098      -2.53029803       4.41584668
C        4.03514000      -2.67244950       5.80752334
C        4.76742672      -1.89210890       6.70822586
C        5.67651225      -0.95420377       6.23052883
C        5.86096867      -0.79075777       4.86189952
C        5.12817270      -1.57289278       3.96355557
H       -0.56701034      -1.00996484       2.47770750
H        0.85558447      -2.40817703       3.90818575
H        3.94739667      -2.31675694       0.87466405
H        2.52065824      -0.91407825      -0.52217048
H        2.21818998      -4.93139615       3.54826508
H        5.43728704      -6.46505780       1.73724084
H        2.71866966      -7.87701222       1.67959683
H        3.96071625      -8.06976410       2.90748819
H        4.27509155      -8.62560396       1.24827231
H        3.05197165      -6.07901353      -0.17485923
H        4.58277878      -6.87443752      -0.61435251
H        4.54065523      -5.14875194      -0.20376998
H        3.32863504      -3.39596097       6.21116038
H        4.61764444      -2.02656293       7.77623244
H        6.57174141      -0.06244352       4.48044490
H        5.30292771      -1.42783955       2.89912441
C        6.43097575      -0.15015627       7.15675366
C        7.06283893       0.52323351       7.93246697
Br       8.08450824       1.61204784       9.18672977
