197
Properties=species:S:1:pos:R:3 pbc="F F F"
C        0.00000000       0.00000000       0.00000000
O        3.03227179       1.97992560      -5.77911415
C        3.93460114       3.06734778      -5.51520040
H        4.88720342       2.61491799      -5.22150012
C        4.08567932       3.86866070      -6.83068429
N        5.08825265       4.96350678      -6.87598116
C        6.43643953       4.44163198      -6.59739290
C        7.59598552       5.44224240      -6.65450158
C        7.96108121       5.85263215      -8.07387484
C        7.13103369       7.00861149      -8.61256947
C        5.64991507       7.00450975      -8.24764965
C        4.98533842       5.62800461      -8.19514635
C        3.37002605       3.92579330      -4.37126109
N        3.47633343       3.24764312      -3.07689735
C        2.47662850       2.49727989      -2.48273658
C        1.15751797       2.22175870      -2.88359837
C        0.36729687       1.41286086      -2.06049199
C        0.88293860       0.88293860      -0.88293860
C        2.19735813       1.14534994      -0.49181513
C        3.00653423       1.97109689      -1.30070360
C        4.34983973       2.44316066      -1.18302224
C        5.36237920       2.24445876      -0.21870277
C        6.58889168       2.89324833      -0.37617936
Br       7.94919213       2.62955712       0.91270864
C        6.82283534       3.73203809      -1.45969358
C        5.83746255       3.93362291      -2.43058694
C        4.60827651       3.26832777      -2.27832402
H        3.54027117       1.28958411      -6.24202740
H        3.09353293       4.28798513      -7.05594711
H        4.28571254       3.15680145      -7.64426531
H        6.66186654       3.59257688      -7.25671894
H        6.44618573       4.05207495      -5.57365987
H        7.39274368       6.31711192      -6.02582828
H        8.47230551       4.94784928      -6.21497662
H        9.01590190       6.15186131      -8.10217577
H        7.87797596       4.99059577      -8.74756650
H        7.56435103       7.95460644      -8.26450894
H        7.23437967       7.02123659      -9.70523446
H        5.50366611       7.52269181      -7.29152699
H        5.12725279       7.61853941      -8.99241158
H        3.92226631       5.81127831      -8.40359886
H        5.34765470       4.97987897      -9.00341492
H        2.31247929       4.15502813      -4.53723095
H        3.90061026       4.87797929      -4.27696160
H        0.75131054       2.61707385      -3.80965348
H       -0.65652686       1.19993191      -2.35631916
H        2.59637303       0.72976187       0.42850428
H        5.17942123       1.59873996       0.63388671
H        7.77707976       4.24263559      -1.56290153
H        6.02643225       4.59562307      -3.26831948
O       -3.76707042      -5.46815440      -1.55608672
C       -4.15771865      -5.42077920      -2.93865146
H       -3.34043103      -5.87607941      -3.50711110
C       -5.45686842      -6.25041018      -3.07774571
N       -5.99392174      -6.49271066      -4.44110819
C       -5.00435783      -7.20343619      -5.26767040
C       -5.42542425      -7.57306235      -6.69424290
C       -6.41532007      -8.72802618      -6.74424196
C       -7.86705393      -8.30109275      -6.58406798
C       -8.13791655      -7.19475122      -5.56940670
C       -7.27275301      -7.22713437      -4.30860200
C       -4.35466059      -3.95457317      -3.35784668
N       -3.07820087      -3.24538324      -3.47728979
C       -2.49580671      -2.47462055      -2.48621772
C       -2.93596150      -2.13097807      -1.19593546
C       -2.11307779      -1.32169420      -0.40587773
C       -0.88293860      -0.88293860      -0.88293860
C       -0.43974683      -1.23561943      -2.15915695
C       -1.26140673      -2.03922487      -2.97770312
C       -1.12195437      -2.54903245      -4.30503580
C       -0.10347916      -2.44421897      -5.27784259
C       -0.29064496      -3.04153714      -6.52613727
Br       1.07143313      -2.90473370      -7.83274003
C       -1.46176473      -3.72844739      -6.82435489
C       -2.47734736      -3.85255555      -5.87176948
C       -2.28136880      -3.26304911      -4.61051039
H       -3.33540217      -6.32872600      -1.40775451
H       -6.22334924      -5.73143878      -2.48267715
H       -5.30455233      -7.21310205      -2.56912492
H       -4.65279079      -8.10694059      -4.75143099
H       -4.13081165      -6.55350404      -5.38760487
H       -5.80668644      -6.69703254      -7.23196490
H       -4.51910905      -7.88793156      -7.22809080
H       -6.31886929      -9.24353418      -7.70753551
H       -6.16152325      -9.47395288      -5.98066211
H       -8.25412928      -7.97260138      -7.55673574
H       -8.45504312      -9.18866136      -6.31714623
H       -8.04527174      -6.21594380      -6.05666937
H       -9.19220499      -7.27216268      -5.27383612
H       -7.87260156      -6.73185476      -3.53268716
H       -7.11369085      -8.25604532      -3.96121243
H       -4.96401282      -3.41512732      -2.62559823
H       -4.85711822      -3.87217658      -4.32625635
H       -3.88724454      -2.48255620      -0.80823713
H       -2.44683562      -1.04300584       0.59011725
H        0.52147222      -0.89093802      -2.52816483
H        0.80749406      -1.89971860      -5.05204995
H       -1.60101971      -4.17655109      -7.80504609
H       -3.39048552      -4.38382693      -6.11606236
O       -3.33944639       1.77710104       5.67476410
C       -4.13131683       2.95229705       5.43353544
H       -5.08812279       2.60382951       5.03166924
C       -4.32899308       3.66067976       6.79535147
N       -5.24544928       4.82795066       6.85434066
C       -6.60187639       4.44200472       6.43158330
C       -7.68247290       5.52770396       6.48255264
C       -8.13120690       5.85739852       7.89898279
C       -7.26275882       6.89639345       8.59306239
C       -5.76119863       6.79779581       8.34308002
C       -5.20148236       5.37912295       8.22788407
C       -3.41034962       3.84590683       4.41082398
N       -3.46077825       3.27955750       3.06053816
C       -2.47555804       2.49668309       2.48440384
C       -1.21893987       2.08336542       2.96056975
C       -0.42742659       1.27709411       2.13612902
C       -0.88293860       0.88293860       0.88293860
C       -2.13669985       1.28209930       0.41572405
C       -2.94458836       2.10776312       1.22598324
C       -4.23365136       2.69677818       1.04559308
C       -5.17526387       2.65652810      -0.00625124
C       -6.35752633       3.39051441       0.11027863
Br      -7.62283913       3.33916958      -1.29596811
C       -6.61552155       4.16067371       1.23837174
C       -5.70122666       4.20553126       2.29491448
C       -4.51799714       3.45452554       2.18240562
H       -3.93511672       1.09779647       6.03896949
H       -3.32976511       3.97820476       7.12949531
H       -4.64925940       2.90780823       7.52971167
H       -6.94509634       3.56666978       6.99939624
H       -6.55670211       4.13380129       5.38141716
H       -7.36186082       6.42818450       5.94563856
H       -8.55463427       5.14235938       5.93813776
H       -9.15885553       6.23970958       7.87137386
H       -8.17002767       4.94258142       8.50352914
H       -7.59242624       7.89873208       8.29230809
H       -7.45475058       6.83414005       9.67196008
H       -5.49737176       7.37353267       7.44698048
H       -5.25654339       7.30795377       9.17370663
H       -4.14839289       5.45751693       8.53123367
H       -5.67770304       4.70339213       8.94985342
H       -2.35573565       3.97366704       4.67533568
H       -3.85715795       4.84307844       4.35531476
H       -0.86165851       2.37198894       3.94439042
H        0.54922770       0.95837597       2.49057594
H       -2.48885429       0.97229979      -0.56352345
H       -4.97228232       2.06481519      -0.89282302
H       -7.53329892       4.73899136       1.31032660
H       -5.90771277       4.81505203       3.16761001
O        4.26078352      -5.14073243       1.38979558
C        4.47398319      -5.23491685       2.80824929
H        3.66409157      -5.85707585       3.20245411
C        5.84765623      -5.91509365       3.02227443
N        6.24638914      -6.27416912       4.40718234
C        5.27091664      -7.20304321       5.00150457
C        5.56528726      -7.70973012       6.41771212
C        6.68945997      -8.73465791       6.46347032
C        8.07862077      -8.12016696       6.55342693
C        8.31598114      -6.86225968       5.72383365
C        7.61951894      -6.82632533       4.36264511
C        4.41915239      -3.82609489       3.42183316
N        3.05332915      -3.29670657       3.45083819
C        2.49407837      -2.47366896       2.48889764
C        3.03409694      -1.90845611       1.32032199
C        2.20914698      -1.10339618       0.52810656
C        0.88293860      -0.88293860       0.88293860
C        0.34283191      -1.45549794       2.03619336
C        1.16241670      -2.25897765       2.85694037
C        0.93626807      -2.95684472       4.08290983
C       -0.19553722      -3.10680886       4.91426908
C       -0.07915780      -3.84115308       6.09632409
Br      -1.59301029      -4.04578495       7.21326594
C        1.13030329      -4.41775111       6.46651261
C        2.25946953      -4.28984905       5.65235381
C        2.13702382      -3.56248150       4.45542297
H        3.97043934      -6.01849556       1.08294779
H        6.60211701      -5.23275254       2.60259563
H        5.88881738      -6.81123068       2.38673125
H        5.10898346      -8.06365643       4.33852248
H        4.30936849      -6.68403189       5.07852017
H        5.75759265      -6.87551534       7.10257589
H        4.65292501      -8.19967291       6.78253349
H        6.54972664      -9.38369482       7.33651752
H        6.63179756      -9.39512850       5.58921218
H        8.29903006      -7.88274159       7.60169475
H        8.80898990      -8.88700672       6.26485410
H        8.03423634      -5.97654585       6.30710273
H        9.39866061      -6.77282459       5.56671858
H        8.23482336      -6.16262916       3.73969096
H        7.64381738      -7.81024091       3.87689031
H        5.03262196      -3.12374071       2.84837570
H        4.78689749      -3.81641283       4.45224083
H        4.06357176      -2.08847578       1.02599033
H        2.61827164      -0.65460852      -0.37315595
H       -0.69325617      -1.28091296       2.30997383
H       -1.13844941      -2.64912069       4.63360320
H        1.21120730      -4.97478016       7.39662942
H        3.20051615      -4.73677365       5.95308501
