169
Properties=species:S:1:pos:R:3 pbc="F F F"
C        0.00000000       0.00000000       0.00000000
C        0.88175137       0.88175137      -0.88175137
C        1.17054225       2.18507875      -0.48126716
C        1.98467210       2.98695063      -1.27959080
C        2.50190922       2.48275996      -2.47353027
C        2.20230591       1.17809110      -2.89081595
C        2.79127607       0.69467886      -4.14508329
C        2.12126594      -0.02916156      -5.05204015
C        2.80113944      -0.37856226      -6.31477155
N        2.17638327      -0.96415977      -7.28444786
C        2.92650126      -1.21998977      -8.44363617
C        2.54697001      -0.60156204      -9.64742469
C        3.24465710      -0.81167408     -10.84632736
C        4.32903846      -1.67370451     -10.75956856
O        5.17929467      -2.04871776     -11.75781626
C        6.06072228      -2.90269378     -11.14325865
N        5.83304487      -3.09001225      -9.85460125
C        4.73174005      -2.31701112      -9.60011149
C        4.01757852      -2.10333205      -8.41708454
C        7.11825494      -3.47985205     -11.96846062
C        7.22341058      -3.21415631     -13.34307474
C        8.24738152      -3.78498389     -14.10367587
C        9.18030230      -4.62759306     -13.50024970
C        9.08420034      -4.89611318     -12.13730049
C        8.06334022      -4.32968468     -11.37425520
C        1.39404290       0.37319889      -2.07825118
H        0.77147499       2.58254013       0.44808417
H        2.21619435       4.00359343      -0.97295010
H        3.13385410       3.12475220      -3.08457380
H        3.81520556       1.01272665      -4.32960384
H        1.09113520      -0.34184070      -4.94236491
H        3.86856366      -0.09304867      -6.39026701
H        1.68287252       0.06070982      -9.64595941
H        2.95896524      -0.33682428     -11.77565608
H        4.30814889      -2.61096980      -7.50589667
H        6.50578907      -2.56059584     -13.83505363
H        8.31684311      -3.57253178     -15.16804873
H        9.97372798      -5.06791625     -14.09834780
H        7.99741048      -4.54777995     -10.30874266
H        1.16979478      -0.65041251      -2.36756309
C       10.04635886      -5.76519972     -11.51077070
C       10.85216663      -6.49305969     -10.98605200
Br      12.15508962      -7.66994770     -10.13762624
C       -0.88175137      -0.88175137      -0.88175137
C       -0.36947899      -2.07162356      -1.39578562
C       -1.17707926      -2.88291041      -2.19122386
C       -2.48923287      -2.49869672      -2.47026986
C       -3.00608125      -1.29507526      -1.97005646
C       -4.39929195      -0.95267833      -2.27906794
C       -4.80629661       0.27856969      -2.61641760
C       -6.22067704       0.47405993      -2.99073162
N       -6.65367123       1.60434269      -3.44734282
C       -8.01380760       1.65622805      -3.79256812
C       -8.36498678       1.90312397      -5.13096985
C       -9.70186203       1.97320595      -5.55065429
C      -10.64847583       1.78645388      -4.55288054
O      -12.00651474       1.79631063      -4.67818907
C      -12.46168171       1.56461007      -3.40421552
N      -11.50801049       1.41194698      -2.50157035
C      -10.35069379       1.55523596      -3.21938259
C       -9.01239008       1.49914917      -2.81809010
C      -13.90804097       1.51134822      -3.21017077
C      -14.81224069       1.72308181      -4.26317013
C      -16.19089622       1.66663842      -4.04181571
C      -16.68382436       1.39654418      -2.76567876
C      -15.79439105       1.18448722      -1.71548382
C      -14.41761880       1.24093771      -1.93122966
C       -2.19380570      -0.49047659      -1.16121068
H        0.65121104      -2.37638418      -1.18075781
H       -0.78548980      -3.81333768      -2.59391041
H       -3.10379177      -3.14425675      -3.09513158
H       -5.09476088      -1.78929389      -2.27348129
H       -4.15520001       1.14074400      -2.67720340
H       -6.88255129      -0.40657666      -2.87665405
H       -7.57147042       2.04471445      -5.86278578
H       -9.97866848       2.16060898      -6.57973754
H       -8.76192355       1.33621275      -1.77736497
H      -14.44994545       1.93653461      -5.26683602
H      -16.88086861       1.83416993      -4.86566138
H      -17.75728990       1.35441114      -2.60128078
H      -13.73109902       1.07438860      -1.10166276
H       -2.58089350       0.43390087      -0.73995275
C      -16.29997543       0.90457723      -0.39653165
C      -16.72340235       0.67015261       0.70809080
Br     -17.40804786       0.29110783       2.49417186
C       -0.88175137       0.88175137       0.88175137
C       -0.74967007       0.81942213       2.26779597
C       -1.54585782       1.63216156       3.07319414
C       -2.47036273       2.49887669       2.48896003
C       -2.62018929       2.55506238       1.09596130
C       -3.59365279       3.50040379       0.53698164
C       -4.41570982       3.20854081      -0.48010611
C       -5.41148006       4.21746107      -0.89159240
N       -6.31715835       3.95749087      -1.77797785
C       -7.22280138       4.99172066      -2.06437438
C       -8.58687874       4.79458526      -1.78863133
C       -9.55091661       5.77948509      -2.05109132
C       -9.06360002       6.95552646      -2.60422398
O       -9.76909020       8.07008823      -2.95078525
C       -8.81812339       8.92779060      -3.44462683
N       -7.58755312       8.44491987      -3.43483913
C       -7.73166910       7.18978136      -2.90661004
C       -6.78670057       6.19219915      -2.64756871
C       -9.27245735      10.23764003      -3.90323387
C      -10.62630973      10.60897330      -3.88295401
C      -11.02677723      11.87053599      -4.33123972
C      -10.07942807      12.77783597      -4.80430510
C       -8.73434859      12.41839322      -4.82735415
C       -8.32993897      11.16005313      -4.38208136
C       -1.80860856       1.74516326       0.29172114
H       -0.03054718       0.14722346       2.72816032
H       -1.44714440       1.59085280       4.15474068
H       -3.08470999       3.12405924       3.13441086
H       -3.65192970       4.46078985       1.04481650
H       -4.43126091       2.25869956      -0.99830106
H       -5.34998343       5.20000196      -0.38420339
H       -8.90208775       3.84559157      -1.35813758
H      -10.60201672       5.63475176      -1.83897144
H       -5.74434187       6.35196965      -2.89323575
H      -11.38282771       9.91653657      -3.51911741
H      -12.07888600      12.14538880      -4.31191475
H      -10.39853782      13.75702907      -5.15140737
H       -7.27476342      10.88936238      -4.40575262
H       -1.88779759       1.79067485      -0.79152707
C       -7.75329323      13.35316267      -5.31452605
C       -6.93165937      14.13603209      -5.72253252
Br      -5.60314691      15.40186572      -6.38224446
C        0.88175137      -0.88175137       0.88175137
C        2.20880963      -1.10746436       0.52061418
C        3.01779527      -1.90268544       1.33073282
C        2.49500348      -2.46936530       2.49383067
C        1.15638472      -2.26000261       2.85482564
C        0.66729211      -2.86407146       4.09967465
C       -0.53015176      -3.45292382       4.22137246
C       -0.86792615      -4.10189400       5.50338088
N       -1.94967998      -4.79594704       5.65040431
C       -2.14490764      -5.38498087       6.91007443
C       -2.19654825      -6.78652597       7.00285495
C       -2.39246479      -7.44648067       8.22529449
C       -2.53541108      -6.61949913       9.33081445
O       -2.72920406      -6.98806252      10.62953472
C       -2.80350958      -5.79708556      11.30771118
N       -2.67295471      -4.72448431      10.54610426
C       -2.50625198      -5.23475205       9.28634034
C       -2.32039467      -4.59454219       8.05718348
C       -3.00710818      -5.86167725      12.75229445
C       -3.16036739      -7.08043685      13.43225955
C       -3.35549517      -7.10577825      14.81579042
C       -3.39863645      -5.91367199      15.53792340
C       -3.24680561      -4.70025539      14.87193787
C       -3.05298467      -4.66980547      13.49108994
C        0.35218820      -1.44989041       2.04341436
H        2.62156728      -0.66773881      -0.38337513
H        4.05426012      -2.08151967       1.05695809
H        3.14154673      -3.08921336       3.11242000
H        1.37328006      -2.85683592       4.92742007
H       -1.25776277      -3.52570351       3.42371868
H       -0.13364324      -3.97646612       6.32295912
H       -2.08107789      -7.37585517       6.09476447
H       -2.43084089      -8.52496984       8.30366809
H       -2.31190726      -3.51322516       8.00175786
H       -3.13130202      -8.02275565      12.88879323
H       -3.47456567      -8.05644411      15.33048162
H       -3.55089638      -5.94141059      16.61364532
H       -2.93642804      -3.71435365      12.98044758
H       -0.68106700      -1.25127602       2.31673635
C       -3.29007049      -3.46733719      15.61466315
C       -3.32630483      -2.43476819      16.23669558
Br      -3.38489268      -0.76519145      17.24246940
