161
Properties=species:S:1:pos:R:3 pbc="F F F"
C        0.00000000       0.00000000       0.00000000
C        0.88175137       0.88175137      -0.88175137
C        1.17054225       2.18507875      -0.48126716
C        1.98467210       2.98695063      -1.27959080
C        2.50190922       2.48275996      -2.47353027
C        2.20230591       1.17809110      -2.89081595
C        2.79127607       0.69467886      -4.14508329
C        2.12126594      -0.02916156      -5.05204015
C        2.80113944      -0.37856226      -6.31477155
N        2.17638327      -0.96415977      -7.28444786
C        2.92650126      -1.21998977      -8.44363617
C        2.54697001      -0.60156204      -9.64742469
C        3.24465710      -0.81167408     -10.84632736
C        4.32903846      -1.67370451     -10.75956856
O        5.17929467      -2.04871776     -11.75781626
C        6.06072228      -2.90269378     -11.14325865
N        5.83304487      -3.09001225      -9.85460125
C        4.73174005      -2.31701112      -9.60011149
C        4.01757852      -2.10333205      -8.41708454
C        7.11825494      -3.47985205     -11.96846062
C        7.22341058      -3.21415631     -13.34307474
C        8.24738152      -3.78498389     -14.10367587
C        9.18030230      -4.62759306     -13.50024970
C        9.08420034      -4.89611318     -12.13730049
Br      10.34729021      -6.03702122     -11.31481292
C        8.06334022      -4.32968468     -11.37425520
C        1.39404290       0.37319889      -2.07825118
H        0.77147499       2.58254013       0.44808417
H        2.21619435       4.00359343      -0.97295010
H        3.13385410       3.12475220      -3.08457380
H        3.81520556       1.01272665      -4.32960384
H        1.09113520      -0.34184070      -4.94236491
H        3.86856366      -0.09304867      -6.39026701
H        1.68287252       0.06070982      -9.64595941
H        2.95896524      -0.33682428     -11.77565608
H        4.30814889      -2.61096980      -7.50589667
H        6.50578907      -2.56059584     -13.83505363
H        8.31684311      -3.57253178     -15.16804873
H        9.97372798      -5.06791625     -14.09834780
H        7.99741048      -4.54777995     -10.30874266
H        1.16979478      -0.65041251      -2.36756309
C       -0.88175137      -0.88175137      -0.88175137
C       -0.98373665      -0.60853486      -2.24461665
C       -1.77912080      -1.41962965      -3.05246308
C       -2.46941660      -2.49566698      -2.49311587
C       -2.38450555      -2.76668622      -1.12002120
C       -3.11586468      -3.92394621      -0.59122733
C       -3.79628854      -3.91087376       0.56301777
C       -4.56435858      -5.11351826       0.94052810
N       -5.34309289      -5.12701872       1.97344023
C       -6.03966593      -6.32268635       2.21220462
C       -7.44429656      -6.31095362       2.16241751
C       -8.20858563      -7.46448140       2.39375666
C       -7.48137317      -8.61193280       2.67840347
O       -7.96159254      -9.86228075       2.93548012
C       -6.83463587     -10.61600357       3.14935228
N       -5.70007566      -9.94519106       3.04763286
C       -6.09876668      -8.66877788       2.75270414
C       -5.35431495      -7.50638716       2.52937110
C       -7.02447614     -12.03235063       3.44996326
C       -8.29973119     -12.60979455       3.55719672
C       -8.44523888     -13.96887879       3.84804416
C       -7.31831471     -14.76879238       4.03414814
C       -6.04955002     -14.20475974       3.92892210
Br      -4.51897047     -15.28555492       4.17944349
C       -5.89926155     -12.84860775       3.63995856
C       -1.57387125      -1.95573697      -0.31588475
H       -0.44747076       0.22734521      -2.68580540
H       -1.86194345      -1.21429563      -4.11649880
H       -3.08726260      -3.11631585      -3.13960164
H       -3.12192677      -4.80192371      -1.23368557
H       -3.85926593      -3.05648126       1.22408777
H       -4.45023311      -5.99398482       0.27843593
H       -7.95230943      -5.37469126       1.93745894
H       -9.28988858      -7.46249820       2.35458974
H       -4.27409743      -7.52909540       2.60011706
H       -9.19298856     -12.00430714       3.41704884
H       -9.43873158     -14.40372388       3.93009539
H       -7.43947942     -15.82489124       4.26021113
H       -4.90150004     -12.41793745       3.56106430
H       -1.47111371      -2.16227928       0.74644762
C       -0.88175137       0.88175137       0.88175137
C       -0.92784276       0.65321389       2.25583151
C       -1.72335570       1.46472716       3.06313067
C       -2.46953430       2.49646712       2.49219803
C       -2.44076641       2.72187245       1.10857411
C       -3.22977335       3.83441856       0.56684631
C       -3.94804640       3.75781030      -0.56171218
C       -4.77018562       4.91974988      -0.95258677
N       -5.58347229       4.87060757      -1.95740849
C       -6.32925272       6.03286893      -2.21197399
C       -7.73011252       5.97529338      -2.11257324
C       -8.54179844       7.09343063      -2.35591869
C       -7.86535163       8.25417606      -2.70462520
O       -8.39757475       9.47774254      -2.98692411
C       -7.30564873      10.26125832      -3.26561990
N       -6.14545921       9.63326323      -3.18108858
C       -6.48890310       8.35520390      -2.82926658
C       -5.69699132       7.22726112      -2.59292143
C       -7.55513713      11.65894014      -3.60721376
C       -8.85276548      12.18871614      -3.68915261
C       -9.05563436      13.53104825      -4.02060911
C       -7.96442014      14.36167285      -4.27313405
C       -6.67381293      13.84500177      -4.19342705
Br      -5.19146042      14.96759382      -4.53397234
C       -6.46633568      12.50569435      -3.86411929
C       -1.62990085       1.91115152       0.30444060
H       -0.34794001      -0.14801985       2.70601080
H       -1.76281605       1.29415768       4.13576416
H       -3.08650802       3.11811735       3.13855472
H       -3.24485511       4.73368337       1.17899758
H       -4.00338008       2.87910974      -1.19083041
H       -4.66464480       5.82626275      -0.32512555
H       -8.19705215       5.03082044      -1.83833085
H       -9.62041735       7.05617812      -2.27879843
H       -4.62125380       7.28406940      -2.70224744
H       -9.71896909      11.55859318      -3.49731541
H      -10.06597986      13.92882758      -4.08244738
H       -8.13015055      15.40447789      -4.53046891
H       -5.45197989      12.11211877      -3.80572547
H       -1.57051400       2.08366320      -0.76723184
C        0.88175137      -0.88175137       0.88175137
C        0.96821338      -2.24805470       0.62062007
C        1.78171215      -3.05188915       1.41761223
C        2.50045351      -2.48624190       2.47150404
C        2.40562944      -1.11534273       2.75024079
C        3.20040042      -0.57250458       3.85813323
C        2.73743494       0.32850564       4.73521522
C        3.60773850       0.72865839       5.85826861
N        3.18175932       1.49475372       6.80966576
C        4.09752744       1.78206485       7.83468507
C        3.80715958       1.35687391       9.14254699
C        4.67116411       1.61029777      10.21844404
C        5.82594033       2.31176253       9.90072470
O        6.83332424       2.68559420      10.74066314
C        7.71993660       3.34542638       9.92677693
N        7.35249257       3.41360585       8.65874714
C        6.14759752       2.76351907       8.63076197
C        5.26897966       2.51047127       7.57282261
C        8.93233019       3.87250980      10.54704312
C        9.18115035       3.75241114      11.92358980
C       10.35152485       4.27024341      12.48479206
C       11.28901477       4.91356843      11.67751261
C       11.05092146       5.03661279      10.31107899
Br      12.31950652       5.90708585       9.21266123
C        9.88379732       4.52244314       9.74655656
C        1.59643783      -0.31088677       1.93816838
H        0.41168068      -2.69373210      -0.19948182
H        1.85605222      -4.11780357       1.21888209
H        3.12860089      -3.13044615       3.08413306
H        4.19701125      -0.99557867       3.96494614
H        1.74364589       0.75552576       4.70353929
H        4.63698641       0.31979757       5.84859316
H        2.88075108       0.81422344       9.32301410
H        4.45449101       1.28365851      11.22696453
H        5.49647198       2.87084538       6.57744917
H        8.46294814       3.25536140      12.57266012
H       10.53164283       4.17215052      13.55286775
H       12.19677212       5.31384390      12.12123131
H        9.70765121       4.62551812       8.67624010
H        1.52784372       0.75901203       2.11811368
