162
Properties=species:S:1:pos:R:3 pbc="F F F"
O        4.74836871       9.14348915      -4.81206942
C        3.65333914       8.91594244      -5.31182757
N        2.94468494       7.74970350      -5.16239045
N        3.56430324       6.67717190      -4.52098592
C        3.38080600       5.39592030      -5.01900835
O        2.54700029       5.17237619      -5.90015219
C        4.28693354       4.30758387      -4.32305058
O        5.23313714       5.05389616      -3.51065844
C        3.41425519       3.42436424      -3.41559125
C        3.60899883       3.36581341      -2.02386993
C        2.80348278       2.55511003      -1.21695389
C        1.79143494       1.79143494      -1.79143494
C        1.57836837       1.82787999      -3.16557360
C        2.38550576       2.63636961      -3.97055268
C        5.13386658       3.45495195      -5.29184248
C        6.26252066       2.76574667      -4.79250712
C        7.06626832       1.98085481      -5.62382424
C        6.74286282       1.85181174      -6.96910218
C        5.62252710       2.49526674      -7.48443496
C        4.82386979       3.28845960      -6.65189002
H        3.12245137       9.64206486      -5.94893502
H        2.13494927       7.53079271      -5.74020953
H        4.32386083       6.87791756      -3.86797129
H        5.98314049       5.27611179      -4.09238122
H        4.39281290       3.95300049      -1.54885109
H        2.97508922       2.52934748      -0.14401027
H        0.78983254       1.23520389      -3.62200179
H        2.19747408       2.64839412      -5.04365753
H        6.52281128       2.83486143      -3.73587634
H        7.93326405       1.47263911      -5.20911576
H        5.35416545       2.38474756      -8.53251890
H        3.95053538       3.75554144      -7.10115773
C        7.56552583       1.04315921      -7.83102251
C        8.25450610       0.36591271      -8.55288079
Br       9.36852892      -0.72913759      -9.72006457
O       -5.26378908      -4.34517138      -9.09496683
C       -5.83737517      -3.33339943      -8.71033455
N       -5.63542620      -2.72495894      -7.49639374
N       -4.83208689      -3.37255302      -6.55782116
C       -5.21052755      -3.36153909      -5.22366802
O       -6.13786242      -2.64733832      -4.83432792
C       -4.32482594      -4.28872542      -4.30401663
O       -3.50890012      -5.07257362      -5.21621800
C       -3.41661871      -3.41345023      -3.42414173
C       -2.01419982      -3.46853256      -3.51594979
C       -1.20676347      -2.66335604      -2.70542719
C       -1.79143494      -1.79143494      -1.79143494
C       -3.17587467      -1.71845855      -1.67748874
C       -3.98101383      -2.52524774      -2.48616648
C       -5.11752141      -5.30664890      -3.45649071
C       -4.44686897      -6.43723108      -2.93667440
C       -5.11441944      -7.39192362      -2.16460431
C       -6.46353318      -7.22213538      -1.87810818
C       -7.14454400      -6.10570265      -2.35198216
C       -6.47615736      -5.15515087      -3.13291118
H       -6.59253505      -2.80552938      -9.31538683
H       -6.26060800      -2.00294549      -7.14239802
H       -4.13524664      -4.03882911      -6.89567393
H       -4.03793450      -5.85446308      -5.45923592
H       -1.53114114      -4.14112148      -4.22240185
H       -0.12556527      -2.72527646      -2.79760524
H       -3.64039811      -1.03979204      -0.96684808
H       -5.06248913      -2.44835859      -2.37867801
H       -3.38332219      -6.57980999      -3.13041687
H       -4.57059521      -8.25521874      -1.78920497
H       -8.19611795      -5.95811138      -2.11720259
H       -7.05056352      -4.29297013      -3.46370091
C       -7.15718148      -8.20092481      -1.08160125
C       -7.73811194      -9.02066096      -0.41452671
Br      -8.67742735     -10.34610498       0.66407642
O       -6.76197336       3.49337773       8.44857619
C       -7.40312404       2.85612694       7.62185816
N       -6.96360685       2.53043440       6.36273763
N       -5.76174636       3.08190006       5.91881465
C       -5.66542879       3.52282930       4.60747656
O       -6.55478452       3.27549010       3.78925403
C       -4.32670058       4.29700750       4.29385991
O       -3.69578954       4.51745364       5.58444856
C       -3.41989311       3.41189903       3.42241854
C       -2.15935425       2.97322921       3.86609871
C       -1.35034069       2.16860366       3.05660235
C       -1.79143494       1.79143494       1.79143494
C       -3.03259052       2.21321651       1.32601493
C       -3.83850466       3.01899669       2.13492671
C       -4.51893529       5.69455549       3.66717024
C       -3.45956041       6.62814073       3.73307330
C       -3.57828908       7.90807068       3.18458761
C       -4.75345620       8.27194680       2.53837373
C       -5.80353861       7.36589214       2.43279805
C       -5.68598593       6.08729787       2.99093562
H       -8.42098130       2.47897512       7.81349484
H       -7.59135018       2.16686133       5.64774000
H       -5.07693113       3.37479229       6.61802627
H       -4.06807583       5.34653995       5.93701772
H       -1.79036954       3.25316799       4.85112694
H       -0.38090255       1.84291994       3.42462448
H       -3.38477659       1.92259612       0.33966551
H       -4.80674992       3.33486610       1.74790971
H       -2.52033287       6.35706368       4.21615250
H       -2.74762428       8.60514491       3.26224973
H       -6.71942977       7.63841950       1.91358265
H       -6.52940213       5.41228095       2.86555149
C       -4.88196110       9.58846507       1.96928137
C       -4.98958395      10.69104913       1.49266652
Br      -5.16360100      12.47383430       0.72202061
O        4.97973366      -9.13497150       4.58922212
C        3.85020813      -8.99019533       5.04070568
N        3.08879786      -7.85504573       4.91293529
N        3.68198513      -6.71979465       4.36068129
C        3.40536603      -5.47789623       4.91247240
O        2.51724712      -5.34423384       5.75804769
C        4.28620593      -4.30945564       4.32190642
O        5.31083778      -4.96244382       3.52441014
C        3.41472707      -3.42440814       3.41507546
C        3.67632769      -3.28186559       2.04048889
C        2.87060570      -2.47110155       1.23383945
C        1.79143494      -1.79143494       1.79143494
C        1.51127197      -1.91192148       3.14862850
C        2.31859089      -2.72029224       3.95354493
C        5.03624977      -3.46793652       5.37647472
C        6.15035500      -2.69676556       4.97365388
C        6.86791126      -1.91765295       5.88538316
C        6.47033772      -1.87714987       7.21628915
C        5.36127585      -2.60312704       7.63782591
C        4.64930142      -3.39019471       6.72472329
H        3.32723871      -9.77525175       5.61096081
H        2.24029870      -7.70859447       5.45705833
H        4.48328241      -6.84665865       3.73980863
H        6.04119591      -5.17710850       4.13332909
H        4.51342424      -3.80239484       1.57884539
H        3.09473139      -2.37944554       0.17427004
H        0.67011537      -1.38516503       3.59175783
H        2.07734305      -2.79908823       5.01309445
H        6.46716206      -2.69610721       3.93027979
H        7.72644054      -1.34475449       5.54382389
H        5.03464269      -2.56244596       8.67434327
H        3.78050419      -3.92423661       7.10249376
C        7.20393931      -1.07501616       8.16075207
C        7.81833065      -0.40322918       8.95173977
Br       8.81174947       0.68299355      10.23069999
C       -0.00445707       0.01189536      -1.78238275
H       -0.66409135       0.67374010      -2.43557963
H        0.65740317      -0.63156657      -2.45157240
C       -0.90989263      -0.90692880      -0.91072765
C        0.90977584       0.90977584      -0.90977584
C       -0.00465871       1.77757030       0.00794375
H       -0.66225468       2.44313916      -0.64384735
H        0.64322798       2.43503045       0.67728295
C       -1.78241447       0.00034974      -0.00472694
H       -2.45427497      -0.65498947       0.64260836
H       -2.43311707       0.67328779      -0.65473579
C       -0.91132561       0.90220522       0.91563759
C       -0.01476271      -0.02253852       1.78660255
H       -0.67934791      -0.69751639       2.42135241
H        0.63392994       0.61504881       2.47327442
C        0.01484550      -1.77751727      -0.01636693
H        0.67870853      -2.42144646      -0.68295456
H       -0.62264859      -2.45592969       0.64226336
C        1.78714474       0.01002794       0.00389507
H        2.44202412       0.67113390       0.66197326
H        2.45385902      -0.65136977      -0.64189061
C        0.91606151      -0.90478549       0.90901405
