161
Properties=species:S:1:pos:R:3 pbc="F F F"
C        0.00000000       0.00000000       0.00000000
C        0.88200759       0.88200759      -0.88200759
C        0.30077586       1.69534324      -1.85068959
C        1.11211769       2.51077801      -2.64627174
C        2.50306787       2.54355205      -2.46524156
C        3.07118876       1.67677387      -1.51920932
C        2.26477369       0.86232365      -0.71645897
N        3.35483335       3.32900569      -3.29723581
N        2.78793988       4.46244008      -3.80328506
C        3.10668598       4.81582309      -5.00715621
C        3.99788281       4.18558895      -6.02508157
N        3.91394654       4.81900702      -7.15796579
N        3.03633764       5.89545516      -6.97346632
C        2.71013373       6.78639759      -7.97779256
S        3.25150875       6.42543167      -9.56888452
C        2.46797005       7.83276531     -10.14920062
C        1.87207670       8.50652014      -9.10130020
N        2.01501591       7.89625132      -7.86440628
C        1.18693630       9.78502833      -9.24694739
C        1.27111855      10.73477715      -8.21994753
C        0.66222208      11.98676512      -8.35353338
C       -0.04871455      12.28898447      -9.51284140
Br      -0.86495175      13.98219964      -9.70195375
C       -0.16067496      11.34939989     -10.53584807
C        0.45513281      10.10027718     -10.40284131
C        2.51796936       6.02057877      -5.69626698
O        1.77605989       6.80981112      -5.15311947
C        4.87588265       3.01856021      -5.76639847
H       -0.77480658       1.70541954      -1.99592501
H        0.64480779       3.13815200      -3.40114364
H        4.14875827       1.63728068      -1.38456349
H        2.72427984       0.21993685       0.02961646
H        4.21310657       3.51046558      -2.76595108
H        2.51169383       8.09910420     -11.19621710
H        1.82284481      10.50620246      -7.30896269
H        0.74980816      12.71298524      -7.54925238
H       -0.72385177      11.57642295     -11.43748282
H        0.34423835       9.37799720     -11.20795827
H        5.46273817       2.79244103      -6.66278409
H        4.27629962       2.14133227      -5.51509677
H        5.56837092       3.24907678      -4.95192948
C       -0.88200759      -0.88200759      -0.88200759
C       -2.03926824      -1.45034620      -0.35719425
C       -2.85002817      -2.24606235      -1.17307692
C       -2.53035532      -2.45895775      -2.52254841
C       -1.33226086      -1.91965301      -3.01525808
C       -0.51935428      -1.11839754      -2.20580450
N       -3.31454921      -3.30651252      -3.36001312
N       -4.63869979      -3.37708848      -3.03787675
C       -5.23759122      -4.51644722      -3.17562684
C       -4.74089063      -5.85398029      -3.61368242
N       -5.66865240      -6.75388873      -3.46837823
N       -6.81314980      -6.10373469      -2.98837463
C       -7.99804873      -6.76008124      -2.71619391
S       -7.98905187      -8.47791390      -2.77885916
C       -9.63690838      -8.49832360      -2.31470400
C      -10.10231478      -7.20602501      -2.17155724
N       -9.15438698      -6.22033807      -2.40094847
C      -11.48678928      -6.87507727      -1.85704547
C      -12.06973559      -5.73322107      -2.42288659
C      -13.40959737      -5.41804308      -2.17488013
C      -14.16998400      -6.23853193      -1.34459539
Br     -15.98284477      -5.82221050      -1.01414637
C      -13.60141363      -7.36668763      -0.75647175
C      -12.26290555      -7.68372451      -1.01162125
C       -6.68440545      -4.73681199      -2.81359767
O       -7.43058110      -3.85098537      -2.45742402
C       -3.38752271      -6.10914089      -4.16417774
H       -2.32106822      -1.28300096       0.67753121
H       -3.74892588      -2.68632130      -0.74885623
H       -1.02547591      -2.10379901      -4.04132752
H        0.38944530      -0.68741820      -2.61662733
H       -3.15070421      -3.01060315      -4.32821586
H      -10.16971404      -9.43271335      -2.20458773
H      -11.48205115      -5.08462193      -3.07133689
H      -13.84502670      -4.53366006      -2.63335903
H      -14.18749631      -8.00366867      -0.09888901
H      -11.83641793      -8.56151687      -0.53225902
H       -3.30043890      -7.16072256      -4.45680183
H       -2.62567198      -5.89520651      -3.41185018
H       -3.22602756      -5.49132885      -5.05202077
C       -0.88200759       0.88200759       0.88200759
C       -1.02786880       0.58485444       2.23408545
C       -1.82590495       1.40360116       3.03966133
C       -2.46121102       2.53811239       2.51253807
C       -2.34247603       2.78786447       1.13683146
C       -1.54144696       1.97573732       0.32637203
N       -3.31940158       3.35892088       3.30275239
N       -3.01804889       3.40267594       4.63294020
C       -3.99850669       3.45453763       5.47662096
C       -5.47833164       3.44768869       5.28253301
N       -6.08737584       3.37412599       6.42941752
N       -5.10444031       3.37299530       7.42782351
C       -5.39594961       3.30191144       8.77646283
S       -7.02734140       2.99533465       9.22314889
C       -6.57178706       3.00464515      10.87350376
C       -5.22143979       3.27021409      10.98824315
N       -4.55906870       3.43532815       9.78127667
C       -4.53253952       3.42240704      12.26396546
C       -3.49187484       4.35371364      12.38025476
C       -2.84533505       4.55283473      13.60435079
C       -3.22843544       3.80747496      14.71720092
Br      -2.36454643       4.07954690      16.37510831
C       -4.24712773       2.86206763      14.61537765
C       -4.89707387       2.66962754      13.39154990
C       -3.80095672       3.46264537       6.97121302
O       -2.71473219       3.51893445       7.50532384
C       -6.15386522       3.54148997       3.96548614
H       -0.52913529      -0.27417743       2.67158011
H       -1.93356069       1.15748448       4.09305824
H       -2.85989792       3.62840969       0.68229483
H       -1.44094043       2.20461804      -0.73095825
H       -3.34025249       4.28554963       2.86372111
H       -7.30623663       2.84914000      11.65163849
H       -3.18404888       4.93916941      11.51479167
H       -2.04823662       5.28874853      13.67506063
H       -4.54189705       2.27005785      15.47809908
H       -5.68040305       1.91794251      13.33184825
H       -7.23909239       3.57023361       4.10863729
H       -5.90890041       2.67281437       3.35101389
H       -5.85016268       4.46134307       3.45787143
C        0.88200759      -0.88200759       0.88200759
C        1.06349860      -2.22390200       0.55940810
C        1.88282722      -3.02339222       1.36294800
C        2.54865164      -2.48754642       2.47566342
C        2.30918209      -1.14634730       2.81164258
C        1.49480744      -0.33970220       2.00904668
N        3.34888560      -3.29432548       3.33786377
N        3.94313284      -4.36853941       2.74199278
C        4.04118689      -5.46442241       3.42405598
C        3.58579976      -5.82344276       4.79931081
N        3.77544767      -7.09019609       5.02527559
N        4.38507793      -7.63342646       3.88675473
C        4.73084422      -8.96655844       3.77692122
S        4.19773290     -10.03188710       5.01620494
C        4.91559761     -11.34686384       4.18747453
C        5.54144619     -10.89678124       3.04166960
N        5.42605344      -9.53348137       2.81613870
C        6.31283872     -11.75513324       2.15094006
C        7.45722367     -11.24690748       1.52171210
C        8.24132325     -12.06210852       0.69908880
C        7.87385454     -13.38948088       0.48977590
Br       8.93495141     -14.49720274      -0.61295251
C        6.72764658     -13.90641371       1.09051271
C        5.94876494     -13.09096317       1.91852319
C        4.63586303      -6.73258614       2.86636593
O        5.15677439      -6.80735703       1.77485906
C        3.02374045      -4.86011574       5.77698516
H        0.57766340      -2.65771016      -0.30883559
H        2.01265368      -4.07045246       1.10099728
H        2.76751490      -0.70869907       3.69438847
H        1.34626799       0.70389965       2.27223190
H        4.01739352      -2.67018556       3.80194415
H        4.86712572     -12.34876751       4.59112190
H        7.75073573     -10.20957431       1.67769992
H        9.13153309     -11.65056413       0.22994856
H        6.43061736     -14.93827873       0.92115791
H        5.05188736     -13.51148606       2.36682040
H        2.82260619      -5.37092539       6.72443171
H        2.08638623      -4.44353721       5.40280523
H        3.74477913      -4.05961691       5.96498114
