190
Properties=species:S:1:pos:R:3 pbc="F F F"
C        1.79191161       1.79191161      -1.79191161
C        1.21067988       2.60524726      -2.76059362
C        2.02202171       3.42068203      -3.55617577
C        3.41297189       3.45345608      -3.37514558
C        3.98109279       2.58667790      -2.42911335
C        3.17467772       1.77222768      -1.62636300
N        4.26473738       4.23890971      -4.20713983
N        3.69784391       5.37234411      -4.71318909
C        4.01659001       5.72572711      -5.91706023
C        4.90778684       5.09549298      -6.93498560
N        4.82385056       5.72891104      -8.06786982
N        3.94624167       6.80535919      -7.88337034
C        3.62003776       7.69630162      -8.88769658
S        4.16141277       7.33533569     -10.47878854
C        3.37787407       8.74266933     -11.05910464
C        2.78198073       9.41642416     -10.01120422
N        2.92491994       8.80615534      -8.77431031
C        2.09684032      10.69493236     -10.15685141
C        2.18102258      11.64468118      -9.12985156
C        1.57212610      12.89666915      -9.26343740
C        0.86118947      13.19888850     -10.42274542
C        0.74922907      12.25930391     -11.44575210
C        1.36503684      11.01018121     -11.31274533
C        3.42787339       6.93048280      -6.60617100
O        2.68596391       7.71971514      -6.06302350
C        5.78578668       3.92846424      -6.67630250
H        0.13509744       2.61532357      -2.90582904
H        1.55471181       4.04805602      -4.31104766
H        5.05866229       2.54718471      -2.29446752
H        3.63418386       1.12984088      -0.88028756
H        5.12301059       4.42036960      -3.67585510
H        3.42159785       9.00900822     -12.10612112
H        2.73274883      11.41610649      -8.21886672
H        1.65971219      13.62288927      -8.45915640
H        0.18605225      12.48632697     -12.34738684
H        1.25414237      10.28790123     -12.11786230
H        6.37264219       3.70234505      -7.57268811
H        5.18620364       3.05123630      -6.42500080
H        6.47827494       4.15898081      -5.86183350
C        0.23902307      14.48952019     -10.56689390
C       -0.28204130      15.57042424     -10.68761825
Br      -1.12455831      17.31815467     -10.88281932
C       -1.79191161      -1.79191161      -1.79191161
C       -1.30192057      -2.27107925      -3.00352095
C       -2.10906821      -3.08916356      -3.80064774
C       -3.39742428      -3.45855991      -3.38558936
C       -3.88937099      -2.92120893      -2.18630411
C       -3.08519743      -2.10643267      -1.38163829
N       -4.25669957      -4.25026337      -4.20382398
N       -3.62159516      -5.12227040      -5.03951155
C       -4.12861942      -5.31601246      -6.21474546
C       -5.31962642      -4.72542967      -6.89320932
N       -5.37480405      -5.11195548      -8.13387189
N       -4.30017556      -5.98448360      -8.35031204
C       -4.04872712      -6.58774008      -9.56756875
S       -4.98203417      -6.07608194     -10.91742090
C       -4.10651209      -7.14989700     -11.92323895
C       -3.18435001      -7.85245728     -11.17280181
N       -3.15876912      -7.51968867      -9.82692779
C       -2.33072457      -8.90204169     -11.71585784
C       -2.01604404     -10.01497604     -10.92453523
C       -1.23763091     -11.05803379     -11.43656795
C       -0.75649453     -10.98444304     -12.74188581
C       -1.04184020      -9.87586739     -13.53657748
C       -1.82649664      -8.83697253     -13.02449420
C       -3.50005658      -6.21890175      -7.24556885
O       -2.52811418      -6.90990129      -7.03068708
C       -6.31345067      -3.84533836      -6.23176438
H       -0.30049321      -2.01846609      -3.33729075
H       -1.71459975      -3.45323468      -4.74598106
H       -4.90028915      -3.14415347      -1.85587189
H       -3.47679803      -1.72467654      -0.44283773
H       -4.93065995      -4.70783337      -3.58074198
H       -4.33087405      -7.22777363     -12.97807952
H       -2.38588423     -10.07982609      -9.90201171
H       -1.01510549     -11.91752854     -10.80912383
H       -0.65924144      -9.80868486     -14.55183976
H       -2.02614754      -7.97598608     -13.65777228
H       -7.11363778      -3.59718102      -6.93685656
H       -5.84001914      -2.91722260      -5.90519899
H       -6.75742794      -4.36415291      -5.37750840
C        0.03923224     -12.05975833     -13.27491108
C        0.70565342     -12.96033488     -13.72131974
Br       1.78320010     -14.41649099     -14.44312479
C       -1.79191161       1.79191161       1.79191161
C       -3.11963504       1.43966615       2.01721958
C       -3.91871996       2.24372964       2.83642992
C       -3.39555583       3.38719686       3.45882086
C       -2.07038073       3.75125653       3.17524677
C       -1.26404285       2.94845277       2.36077278
N       -4.20397451       4.24918552       4.25762689
N       -5.24628248       3.64172597       4.89536865
C       -6.35697586       4.29759843       5.00480306
C       -6.76400851       5.65054778       4.52370912
N       -8.03098627       5.84864867       4.74099648
N       -8.52787971       4.71304362       5.39404787
C       -9.84824602       4.57800322       5.77778672
S      -10.95950352       5.77475725       5.24127624
C      -12.23303576       4.93165514       6.01495714
C      -11.73668543       3.81487458       6.65804910
N      -10.37131969       3.62167278       6.51239312
C      -12.55087780       2.92303808       7.47470821
C      -11.99672806       2.33774073       8.62108653
C      -12.76927768       1.51541617       9.44753881
C      -14.09968323       1.26218972       9.12095044
C      -14.66182526       1.81874205       7.97371777
C      -13.88903438       2.64659499       7.15233400
C       -7.59410249       3.72329214       5.64713255
O       -7.62639833       2.64442275       6.19788147
C       -5.84180955       6.63753671       3.91120715
H       -3.54266593       0.54791571       1.56566841
H       -4.95475601       1.95834086       3.00071862
H       -1.64460801       4.65686878       3.59883772
H       -0.23197922       3.23448931       2.17784377
H       -3.57529770       4.74681607       4.89712152
H      -13.24621440       5.30784415       5.98266864
H      -10.95665931       2.52822007       8.88284265
H      -12.32255988       1.08085400      10.33834397
H      -15.69616585       1.61495292       7.70864730
H      -14.34434383       3.05991946       6.25564260
H       -6.38260515       7.56579411       3.69927610
H       -5.43981596       6.24951030       2.97311447
H       -5.02821198       6.86522428       4.60565299
C      -14.90024470       0.42186231       9.97333016
C      -15.57071492      -0.28191190      10.68719817
Br     -16.65480858      -1.41985527      11.84146237
C        1.79191161      -1.79191161       1.79191161
C        3.12995876      -1.46069812       1.98586389
C        3.92933162      -2.26438665       2.80516124
C        3.39690620      -3.38602661       3.45864074
C        2.06008649      -3.73017880       3.20661874
C        1.25352934      -2.92752467       2.39221437
N        4.20414985      -4.24817475       4.25846232
N        5.26940697      -3.64879569       4.86517443
C        6.36961629      -4.32339486       4.96636620
C        6.74232724      -5.69248205       4.50345612
N        8.00929288      -5.91042299       4.70091556
N        8.53940981      -4.77249434       5.32306704
C        9.86906804      -4.65533283       5.67963508
S       10.94760644      -5.88261302       5.14531755
C       12.25094502      -5.04952202       5.87918101
C       11.78762905      -3.91182916       6.51015090
N       10.42357250      -3.69559828       6.38621480
C       12.63350455      -3.02054488       7.29457467
C       12.11206294      -2.40372394       8.43976843
C       12.91520629      -1.58095881       9.23606755
C       14.24367065      -1.35901464       8.88013810
C       14.77361864      -1.94726749       7.73339895
C       13.97022736      -2.77546051       6.94227550
C        7.62909567      -3.76075338       5.57467813
O        7.69179280      -2.67265928       6.10425048
C        5.79057595      -6.67305880       3.92691866
H        3.56084614      -0.58562671       1.50977719
H        4.97340092      -1.99562668       2.94478789
H        1.62567290      -4.61957384       3.65506778
H        0.21306686      -3.19735291       2.23389252
H        3.57854826      -4.72189362       4.91879341
H       13.25618244      -5.44532139       5.83522337
H       11.07377224      -2.56963100       8.72431879
H       12.49353485      -1.12158942      10.12663359
H       15.80636738      -1.76800853       7.44539015
H       14.40077006      -3.21387113       6.04526470
H        6.30996412      -7.61513892       3.72257231
H        5.37819406      -6.29496889       2.98927778
H        4.98616250      -6.87241631       4.64051043
C       15.07563975      -0.51830145       9.70149596
C       15.77241388       0.18579585      10.38938317
Br      16.89903871       1.32426163      11.50163861
C       -0.00445707       0.01189536      -1.78238275
H       -0.66409135       0.67374010      -2.43557963
H        0.65740317      -0.63156657      -2.45157240
C       -0.90989263      -0.90692880      -0.91072765
C        0.90977584       0.90977584      -0.90977584
C       -0.00465871       1.77757030       0.00794375
H       -0.66225468       2.44313916      -0.64384735
H        0.64322798       2.43503045       0.67728295
C       -1.78241447       0.00034974      -0.00472694
H       -2.45427497      -0.65498947       0.64260836
H       -2.43311707       0.67328779      -0.65473579
C       -0.91132561       0.90220522       0.91563759
C       -0.01476271      -0.02253852       1.78660255
H       -0.67934791      -0.69751639       2.42135241
H        0.63392994       0.61504881       2.47327442
C        0.01484550      -1.77751727      -0.01636693
H        0.67870853      -2.42144646      -0.68295456
H       -0.62264859      -2.45592969       0.64226336
C        1.78714474       0.01002794       0.00389507
H        2.44202412       0.67113390       0.66197326
H        2.45385902      -0.65136977      -0.64189061
C        0.91606151      -0.90478549       0.90901405
