169
Properties=species:S:1:pos:R:3 pbc="F F F"
C        0.00000000       0.00000000       0.00000000
C        0.88200759       0.88200759      -0.88200759
C        0.30077586       1.69534324      -1.85068959
C        1.11211769       2.51077801      -2.64627174
C        2.50306787       2.54355205      -2.46524156
C        3.07118876       1.67677387      -1.51920932
C        2.26477369       0.86232365      -0.71645897
N        3.35483335       3.32900569      -3.29723581
N        2.78793988       4.46244008      -3.80328506
C        3.10668598       4.81582309      -5.00715621
C        3.99788281       4.18558895      -6.02508157
N        3.91394654       4.81900702      -7.15796579
N        3.03633764       5.89545516      -6.97346632
C        2.71013373       6.78639759      -7.97779256
S        3.25150875       6.42543167      -9.56888452
C        2.46797005       7.83276531     -10.14920062
C        1.87207670       8.50652014      -9.10130020
N        2.01501591       7.89625132      -7.86440628
C        1.18693630       9.78502833      -9.24694739
C        1.27111855      10.73477715      -8.21994753
C        0.66222208      11.98676512      -8.35353338
C       -0.04871455      12.28898447      -9.51284140
C       -0.16067496      11.34939989     -10.53584807
C        0.45513281      10.10027718     -10.40284131
C        2.51796936       6.02057877      -5.69626698
O        1.77605989       6.80981112      -5.15311947
C        4.87588265       3.01856021      -5.76639847
H       -0.77480658       1.70541954      -1.99592501
H        0.64480779       3.13815200      -3.40114364
H        4.14875827       1.63728068      -1.38456349
H        2.72427984       0.21993685       0.02961646
H        4.21310657       3.51046558      -2.76595108
H        2.51169383       8.09910420     -11.19621710
H        1.82284481      10.50620246      -7.30896269
H        0.74980816      12.71298524      -7.54925238
H       -0.72385177      11.57642295     -11.43748282
H        0.34423835       9.37799720     -11.20795827
H        5.46273817       2.79244103      -6.66278409
H        4.27629962       2.14133227      -5.51509677
H        5.56837092       3.24907678      -4.95192948
C       -0.67088096      13.57961617      -9.65698988
C       -1.19194532      14.66052022      -9.77771423
Br      -2.03446233      16.40825064      -9.97291529
C       -0.88200759      -0.88200759      -0.88200759
C       -1.93825615      -1.59129412      -0.31725842
C       -2.75069187      -2.38670299      -1.13177258
C       -2.53546601      -2.46010933      -2.51628615
C       -1.43347898      -1.77864115      -3.05505183
C       -0.61993125      -0.97702069      -2.24660438
N       -3.31922589      -3.30287643      -3.35897252
N       -4.59953988      -3.51630705      -2.93781810
C       -5.11370221      -4.68922205      -3.12674102
C       -4.55068328      -5.93751170      -3.72035836
N       -5.38574003      -6.92481699      -3.58036233
N       -6.53229570      -6.41966686      -2.95329656
C       -7.63118944      -7.19824145      -2.64489299
S       -7.48821627      -8.89774194      -2.85986673
C       -9.08139874      -9.10155842      -2.26697881
C       -9.63577448      -7.87144231      -1.97268024
N       -8.79510982      -6.79036242      -2.19020127
C      -11.00927716      -7.69097706      -1.51865780
C      -11.73086346      -6.56300517      -1.93197461
C      -13.06468103      -6.38884305      -1.54899650
C      -13.67940651      -7.33815114      -0.73555366
C      -12.97123324      -8.45560470      -0.29773506
C      -11.63924069      -8.63115162      -0.68785898
C       -6.50008915      -5.06545398      -2.66927197
O       -7.28131792      -4.28102409      -2.17664847
C       -3.23510513      -6.02631626      -4.39941994
H       -2.14003779      -1.53418057       0.74768038
H       -3.56975918      -2.93779812      -0.67654611
H       -1.20476209      -1.85092591      -4.11491444
H        0.21090597      -0.43535030      -2.69015590
H       -3.26630049      -2.91593591      -4.30728682
H       -9.52467274     -10.08528161      -2.19706077
H      -11.25752904      -5.81440158      -2.56607934
H      -13.60939546      -5.51214773      -1.89050259
H      -13.44311334      -9.19327468       0.34633402
H      -11.10209052      -9.50379233      -0.32431097
H       -3.08910061      -7.03879523      -4.79006744
H       -2.42957468      -5.80763897      -3.69551500
H       -3.20355771      -5.32654274      -5.23927672
C      -15.05472078      -7.16587600      -0.34512831
C      -16.20654647      -7.02159557      -0.01814708
Br     -18.06895120      -6.78830632       0.51055392
C       -0.88200759       0.88200759       0.88200759
C       -1.08225608       0.54649733       2.21805528
C       -1.87987630       1.36497912       3.02431202
C       -2.46044273       2.53637756       2.51504119
C       -2.28803135       2.82620062       1.15293999
C       -1.48704586       2.01438897       0.34212149
N       -3.31757548       3.35941451       3.30408486
N       -3.05938639       3.35027496       4.64400368
C       -4.06518880       3.40753548       5.45694100
C       -5.53719136       3.45616908       5.21519290
N       -6.18610234       3.36602335       6.33879366
N       -5.23746931       3.30005423       7.36773559
C       -5.57581744       3.19532663       8.70317981
S       -7.23018914       2.92896703       9.08666877
C       -6.82972306       2.86998306      10.75022985
C       -5.47609077       3.08665370      10.91715256
N       -4.76896407       3.26841294       9.73829650
C       -4.82546679       3.17469732      12.21874791
C       -3.75980437       4.06664371      12.39939516
C       -3.14826733       4.20463632      13.64961693
C       -3.59197190       3.43699330      14.72414612
C       -4.63662065       2.52976468      14.55818768
C       -5.25135423       2.39855058      13.30834648
C       -3.91730771       3.36094716       6.95656025
O       -2.84820293       3.36384749       7.52694006
C       -6.16516895       3.61474169       3.88093070
H       -0.62626570      -0.34228852       2.64256080
H       -2.03038153       1.08879521       4.06492668
H       -2.76271832       3.69768995       0.71019417
H       -1.34410622       2.27371984      -0.70322583
H       -3.29396831       4.29987731       2.89567761
H       -7.59427638       2.71402564      11.49871310
H       -3.40467077       4.66909397      11.56424521
H       -2.33068416       4.91096904      13.77039259
H       -4.97883141       1.92042136      15.39080123
H       -6.05605684       1.67565112      13.19848586
H       -7.25306930       3.67494645       3.98994753
H       -5.92799163       2.75863040       3.24610663
H       -5.81529295       4.53984765       3.41423658
C       -2.96955114       3.58156627      16.01460768
C       -2.44827375       3.70264613      17.09536924
Br      -1.60541230       3.89842203      18.84286928
C        0.88200759      -0.88200759       0.88200759
C        1.13180294      -2.20103734       0.51396842
C        1.95093715      -2.99990463       1.31832566
C        2.54902413      -2.48461598       2.47822137
C        2.24084175      -1.16914828       2.85718192
C        1.42631845      -0.36297963       2.05425823
N        3.34705879      -3.29395818       3.34005788
N        4.00870430      -4.31793984       2.72702089
C        4.12491689      -5.43642609       3.36832230
C        3.63035435      -5.87013744       4.70806155
N        3.86329543      -7.13661210       4.89101183
N        4.53988263      -7.60733687       3.75803963
C        4.94483173      -8.91990554       3.60958661
S        4.40743548     -10.05620477       4.78218470
C        5.21178056     -11.30594731       3.93220811
C        5.86358882     -10.78405795       2.83225027
N        5.70075196      -9.41825373       2.65666782
C        6.70487783     -11.57322341       1.94081078
C        7.85134611     -10.99406638       1.38043075
C        8.70081264     -11.74247477       0.55923317
C        8.39743813     -13.07360448       0.28206871
C        7.25064775     -13.66034335       0.81358190
C        6.40616531     -12.91170156       1.64038443
C        4.79352437      -6.65560462       2.78568612
O        5.36020583      -6.66413816       1.71464649
C        2.99022338      -4.97143464       5.69918332
H        0.69941865      -2.61743483      -0.39031550
H        2.13448804      -4.02916904       1.02044634
H        2.64503145      -0.75061628       3.77495472
H        1.22418004       0.66203458       2.35245477
H        3.97002434      -2.66347149       3.85602739
H        5.18890961     -12.32488851       4.29321700
H        8.09506108      -9.95322890       1.58971999
H        9.59115938     -11.27662484       0.14426156
H        7.00372739     -14.69530677       0.59101984
H        5.51036605     -13.38591520       2.03391256
H        2.77285765      -5.52877343       6.61633220
H        2.05204245      -4.57738548       5.30330074
H        3.66931688      -4.15131862       5.94874167
C        9.27349687     -13.84938074      -0.55715252
C       10.00719606     -14.49909337      -1.26000030
Br      11.19352559     -15.54962373      -2.39644572
