182
Properties=species:S:1:pos:R:3 pbc="F F F"
C        1.79191161       1.79191161      -1.79191161
C        1.21067988       2.60524726      -2.76059362
C        2.02202171       3.42068203      -3.55617577
C        3.41297189       3.45345608      -3.37514558
C        3.98109279       2.58667790      -2.42911335
C        3.17467772       1.77222768      -1.62636300
N        4.26473738       4.23890971      -4.20713983
N        3.69784391       5.37234411      -4.71318909
C        4.01659001       5.72572711      -5.91706023
C        4.90778684       5.09549298      -6.93498560
N        4.82385056       5.72891104      -8.06786982
N        3.94624167       6.80535919      -7.88337034
C        3.62003776       7.69630162      -8.88769658
S        4.16141277       7.33533569     -10.47878854
C        3.37787407       8.74266933     -11.05910464
C        2.78198073       9.41642416     -10.01120422
N        2.92491994       8.80615534      -8.77431031
C        2.09684032      10.69493236     -10.15685141
C        2.18102258      11.64468118      -9.12985156
C        1.57212610      12.89666915      -9.26343740
C        0.86118947      13.19888850     -10.42274542
Br       0.04495228      14.89210367     -10.61185777
C        0.74922907      12.25930391     -11.44575210
C        1.36503684      11.01018121     -11.31274533
C        3.42787339       6.93048280      -6.60617100
O        2.68596391       7.71971514      -6.06302350
C        5.78578668       3.92846424      -6.67630250
H        0.13509744       2.61532357      -2.90582904
H        1.55471181       4.04805602      -4.31104766
H        5.05866229       2.54718471      -2.29446752
H        3.63418386       1.12984088      -0.88028756
H        5.12301059       4.42036960      -3.67585510
H        3.42159785       9.00900822     -12.10612112
H        2.73274883      11.41610649      -8.21886672
H        1.65971219      13.62288927      -8.45915640
H        0.18605225      12.48632697     -12.34738684
H        1.25414237      10.28790123     -12.11786230
H        6.37264219       3.70234505      -7.57268811
H        5.18620364       3.05123630      -6.42500080
H        6.47827494       4.15898081      -5.86183350
C       -1.79191161      -1.79191161      -1.79191161
C       -1.24916770      -2.41551234      -2.91184072
C       -2.05810828      -3.23262404      -3.70814719
C       -3.40383602      -3.45705769      -3.38067984
C       -3.94233246      -2.77663793      -2.27791364
C       -3.13725489      -1.96189556      -1.47411794
N       -4.26044763      -4.24560164      -4.20473765
N       -3.63936140      -5.23754252      -4.90647319
C       -4.06387651      -5.49309006      -6.10241078
C       -5.13810853      -4.86992431      -6.93023257
N       -5.12591143      -5.35959605      -8.13512394
N       -4.11917793      -6.33282610      -8.18296717
C       -3.82381706      -7.06061397      -9.31960492
S       -4.59439827      -6.59664627     -10.78449247
C       -3.73872556      -7.82371489     -11.61720759
C       -2.94722166      -8.52965613     -10.73273131
N       -3.00218432      -8.08155888      -9.42164239
C       -2.14894627      -9.68967021     -11.11000762
C       -2.00035784     -10.74968928     -10.20550819
C       -1.27869743     -11.89431501     -10.55922021
C       -0.68785814     -11.97683185     -11.81813340
Br       0.27993759     -13.52481604     -12.30403526
C       -0.80743963     -10.92383694     -12.72300851
C       -1.53567243      -9.78282884     -12.36946210
C       -3.43608673      -6.53253031      -6.99591014
O       -2.55036979      -7.27875864      -6.63957412
C       -6.10032460      -3.85615959      -6.43406923
H       -0.20530855      -2.27631717      -3.17462432
H       -1.62169783      -3.71045192      -4.58166574
H       -4.99269787      -2.88590361      -2.02171303
H       -3.56870965      -1.46732851      -0.60827414
H       -5.02113750      -4.58924791      -3.60884989
H       -3.88217135      -7.97662519     -12.67793066
H       -2.45682723     -10.69277621      -9.21811859
H       -1.18562502     -12.70981579      -9.84631705
H       -0.33869091     -10.97883066     -13.70224450
H       -1.60542841      -8.96823626     -13.08624122
H       -6.81492126      -3.60721976      -7.22553434
H       -5.57439781      -2.94445694      -6.14358599
H       -6.65706445      -4.25880911      -5.58321569
C       -1.79191161       1.79191161       1.79191161
C       -3.10030400       1.40643850       2.06977826
C       -3.89892951       2.21113350       2.88881650
C       -3.39335252       3.38920535       3.45901568
C       -2.08966533       3.78456078       3.12265791
C       -1.28368856       2.98149634       2.30808350
N       -4.20375964       4.25083810       4.25618917
N       -5.20630316       3.63218689       4.94488705
C       -6.33330311       4.25684174       5.06923250
C       -6.79746486       5.58079185       4.56000870
N       -8.06281773       5.74673943       4.81107426
N       -8.50330713       4.61765551       5.51400856
C       -9.80636160       4.45441168       5.94326268
S      -10.97082480       5.59898200       5.40573021
C      -12.19275111       4.74212830       6.24476863
C      -11.64186067       3.66197760       6.90577084
N      -10.27617474       3.50620476       6.72300609
C      -12.40203452       2.77187399       7.77471558
C      -11.79478049       2.24037585       8.92039898
C      -12.51524973       1.42130271       9.79568021
C      -13.84636758       1.11721995       9.51923586
Br     -14.82649551       0.01900906      10.70340914
C      -14.46072344       1.61972899       8.37383265
C      -13.74003263       2.44449280       7.50343794
C       -7.53138396       3.66548571       5.76765751
O       -7.51265583       2.60408714       6.35195958
C       -5.92614061       6.57572112       3.88869168
H       -3.50856786       0.48831003       1.65937216
H       -4.91990160       1.89946277       3.09445112
H       -1.67995756       4.71573758       3.50461938
H       -0.26727684       3.29310307       2.08393240
H       -3.57182741       4.78747441       4.85993348
H      -13.21783127       5.08587859       6.23301734
H      -10.75372086       2.47082391       9.14317726
H      -12.02792259       1.02901988      10.68481538
H      -15.49574121       1.37605480       8.14797005
H      -14.23545198       2.81510908       6.60934482
H       -6.50225765       7.47980221       3.66561549
H       -5.54101954       6.17073025       2.95069095
H       -5.09924747       6.85008143       4.54976036
C        1.79191161      -1.79191161       1.79191161
C        3.14562491      -1.49928023       1.93161562
C        3.94552109      -2.30232334       2.75103508
C        3.39930765      -3.38405276       3.45821315
C        2.04447459      -3.69151741       3.26089203
C        1.23753114      -2.88911149       2.44662577
N        4.20453883      -4.24638086       4.25986723
N        5.30809536      -3.66353048       4.81175127
C        6.38879400      -4.37071519       4.89986817
C        6.70169062      -5.76561136       4.47096343
N        7.96685324      -6.01907190       4.63470629
N        8.55367592      -4.87996796       5.20132732
C        9.89752899      -4.79565075       5.51085621
S       10.91768564      -6.07464409       4.98320728
C       12.27081094      -5.26215425       5.64668285
C       11.86554910      -4.08998876       6.25407124
N       10.50578777      -3.83264532       6.16695249
C       12.76525258      -3.20253953       6.98083199
C       12.30226367      -2.53221870       8.12107294
C       13.15747166      -1.71141331       8.86334767
C       14.47982462      -1.54530106       8.45769771
Br      15.64142211      -0.44514197       9.46234964
C       14.95217826      -2.18741674       7.31469007
C       14.09672003      -3.01346952       6.57777382
C        7.68523660      -3.83096595       5.44832464
O        7.80046026      -2.72908759       5.93915470
C        5.70026124      -6.73205311       3.95823906
H        3.58837394      -0.65477600       1.41310010
H        5.00175714      -2.06405648       2.84800188
H        1.59682400      -4.55110164       3.75238887
H        0.18424243      -3.12916660       2.33090327
H        3.58631488      -4.67756566       4.95535475
H       13.26078243      -5.69234964       5.58359512
H       11.26920410      -2.65429245       8.44422548
H       12.78062053      -1.20988039       9.75125694
H       15.98001629      -2.05193245       6.98781732
H       14.48289283      -3.49456819       5.68244487
H        6.18200397      -7.69695756       3.76871383
H        5.26932122      -6.37081977       3.02229975
H        4.91401064      -6.88151493       4.70356368
C       -0.00445707       0.01189536      -1.78238275
H       -0.66409135       0.67374010      -2.43557963
H        0.65740317      -0.63156657      -2.45157240
C       -0.90989263      -0.90692880      -0.91072765
C        0.90977584       0.90977584      -0.90977584
C       -0.00465871       1.77757030       0.00794375
H       -0.66225468       2.44313916      -0.64384735
H        0.64322798       2.43503045       0.67728295
C       -1.78241447       0.00034974      -0.00472694
H       -2.45427497      -0.65498947       0.64260836
H       -2.43311707       0.67328779      -0.65473579
C       -0.91132561       0.90220522       0.91563759
C       -0.01476271      -0.02253852       1.78660255
H       -0.67934791      -0.69751639       2.42135241
H        0.63392994       0.61504881       2.47327442
C        0.01484550      -1.77751727      -0.01636693
H        0.67870853      -2.42144646      -0.68295456
H       -0.62264859      -2.45592969       0.64226336
C        1.78714474       0.01002794       0.00389507
H        2.44202412       0.67113390       0.66197326
H        2.45385902      -0.65136977      -0.64189061
C        0.91606151      -0.90478549       0.90901405
