149
Properties=species:S:1:pos:R:3 pbc="F F F"
C        0.00000000       0.00000000       0.00000000
O        2.00982388       7.61682846      -1.35559579
C        2.70948613       6.62846774      -1.12934672
C        2.49213250       5.29008244      -1.83320054
O        2.00186904       4.32401472      -0.90836917
C        1.87771893       3.03748801      -1.35021035
C        2.47592996       2.49966049      -2.49140779
C        2.27169921       1.15674255      -2.82670184
C        1.46885407       0.34731907      -2.02566906
C        0.88170281       0.88170281      -0.88170281
C        1.08964746       2.21754853      -0.53852375
N        3.76657235       6.69029979      -0.24487471
N        4.53501620       5.59853110       0.01763710
C        5.41913958       5.70310552       0.95406482
C        5.76723950       6.90988822       1.82647311
O        5.25924344       8.00513766       1.73145774
N        6.74572490       6.46523479       2.68926458
C        7.04804670       5.12017282       2.44992869
C        7.95030286       4.30594629       3.10150108
Br       9.00282728       4.93983799       4.53298932
C        8.06690408       2.97368609       2.67822303
C        7.28135156       2.47187950       1.61224675
C        7.41219538       1.04196562       1.16814762
C        6.36739136       3.31275517       0.96243246
C        6.28087378       4.61892428       1.40384190
H        3.45027405       4.99716539      -2.27809120
H        1.75629054       5.43923997      -2.63119902
H        3.11571802       3.09020894      -3.13884727
H        2.74065805       0.74369678      -3.71707131
H        1.30837423      -0.69217871      -2.29860542
H        0.63264045       2.63464844       0.35516254
H        3.91582189       7.56594288       0.25987736
H        7.17330564       7.04206051       3.39947095
H        8.77053820       2.31086354       3.18078983
H        8.14613572       0.49898111       1.77276126
H        7.73911503       1.00166730       0.12434355
H        6.45061046       0.52821960       1.26471727
H        5.74050706       2.95789918       0.14899000
O       -4.09502093      -0.02257851      -6.86464868
C       -3.23395245      -0.79406778      -6.43928037
C       -3.25642741      -1.34460484      -5.01438323
O       -2.18201519      -0.79320599      -4.25903175
C       -1.98316798      -1.28279926      -2.99945005
C       -2.49991595      -2.47607411      -2.49100817
C       -2.21010418      -2.86607809      -1.17896133
C       -1.40568071      -2.06605429      -0.37010719
C       -0.88170281      -0.88170281      -0.88170281
C       -1.16053425      -0.49320750      -2.19197799
N       -2.21122536      -1.23917135      -7.25135015
N       -1.25093022      -2.08180158      -6.78317840
C       -0.25691351      -2.34602450      -7.56524227
C        0.00649714      -1.86454049      -8.99261126
O       -0.73819989      -1.15873873      -9.63598474
N        1.22511233      -2.40630359      -9.34050385
C        1.74748161      -3.17284503      -8.29292741
C        2.94102231      -3.86106612      -8.23470425
Br       4.14868257      -3.87446062      -9.68389789
C        3.24889227      -4.55569858      -7.05556083
C        2.36301769      -4.55317095      -5.95083104
C        2.70364043      -5.29866754      -4.69098628
C        1.15493570      -3.84641374      -6.02623603
C        0.88337984      -3.17609640      -7.20323960
H       -3.20157486      -2.43707871      -5.08687705
H       -4.20994302      -1.06263689      -4.55414963
H       -3.12297597      -3.13420742      -3.08759082
H       -2.61568620      -3.79696287      -0.78877708
H       -1.19319948      -2.37223392       0.65063246
H       -0.75051493       0.43051691      -2.59212834
H       -2.15764031      -0.86408664      -8.20016046
H        1.67292292      -2.25571425     -10.23310388
H        4.18811279      -5.10337000      -6.98535471
H        3.68054811      -5.78775867      -4.76514502
H        1.95324276      -6.07175210      -4.49792945
H        2.73653826      -4.60841014      -3.84224092
H        0.45754562      -3.81327884      -5.19368302
O       -2.29609492       7.57544625       1.11070695
C       -2.95888028       6.54796779       0.96045253
C       -2.64958355       5.25416138       1.71167055
O       -2.15654773       4.26909454       0.80861066
C       -1.95415348       3.01091436       1.30034945
C       -2.47634030       2.50032346       2.49033447
C       -2.19611571       1.18448851       2.87453939
C       -1.39288882       0.37516157       2.07379181
C       -0.88170281       0.88170281       0.88170281
C       -1.16565520       2.18995459       0.49010995
N       -4.05550853       6.52263091       0.12360742
N       -4.78377904       5.38726754      -0.05513638
C       -5.71203871       5.40979523      -0.95365367
C       -6.15317411       6.55878167      -1.86130118
O       -5.69233989       7.67848863      -1.83790516
N       -7.14714430       6.03243024      -2.65787943
C       -7.37656365       4.68780460      -2.34607742
C       -8.26820838       3.80567611      -2.91913643
Br      -9.41058032       4.32631729      -4.32722167
C       -8.30479338       2.49043051      -2.43285674
C       -7.45097087       2.07309556      -1.38308213
C       -7.49636994       0.66072459      -0.87108114
C       -6.54894702       2.98225252      -0.81348547
C       -6.54198262       4.26930593      -1.31533239
H       -3.57279855       4.94019793       2.21253416
H       -1.88703874       5.47198322       2.46770757
H       -3.11353069       3.09132288       3.13992066
H       -2.60605727       0.79258169       3.80278718
H       -1.17300172      -0.64265185       2.38445108
H       -0.76797317       2.58523018      -0.44107699
H       -4.26684113       7.36676609      -0.41171980
H       -7.63154197       6.55669307      -3.37233983
H       -8.99862879       1.77496595      -2.87298283
H       -8.23043578       0.05883784      -1.41691805
H       -7.77494305       0.65409664       0.18739911
H       -6.51737134       0.18580568      -0.98906422
H       -5.87131096       2.69300437      -0.01489909
O        5.01006595       0.25110422       6.22328640
C        4.00606896      -0.43499620       6.02623543
C        3.75229034      -1.15835646       4.70476869
O        2.65808141      -0.55695205       4.01921947
C        2.21873490      -1.16758830       2.87909409
C        2.50163473      -2.47764228       2.48772122
C        1.97798768      -2.98399125       1.29316467
C        1.17236732      -2.18444467       0.48503021
C        0.88170281      -0.88170281       0.88170281
C        1.39412705      -0.37546779       2.07612491
N        3.06382291      -0.62121352       7.01671042
N        1.94727034      -1.36816151       6.80047835
C        1.05168147      -1.38481144       7.73168736
C        1.06065497      -0.69401331       9.09598633
O        1.97373013      -0.02801171       9.53118152
N       -0.15325289      -1.00529986       9.66964814
C       -0.91434390      -1.81411826       8.81851647
C       -2.18094198      -2.32401819       9.01167185
Br      -3.15792564      -1.97937914      10.58822244
C       -2.74150739      -3.10993486       7.99393967
C       -2.03180185      -3.37516537       6.79762078
C       -2.64261651      -4.21644002       5.71218987
C       -0.74610573      -2.84701211       6.61680770
C       -0.22455658      -2.07996867       7.64054407
H        3.57108854      -2.21339220       4.94104989
H        4.65698014      -1.07781169       4.09193770
H        3.11643400      -3.13846384       3.08987638
H        2.20203171      -4.00551835       0.99387608
H        0.77737716      -2.58296681      -0.44554302
H        1.16626803       0.64093263       2.38679095
H        3.19598062      -0.12561453       7.90029227
H       -0.44445063      -0.68001623      10.58032960
H       -3.74251971      -3.52024622       8.12288540
H       -3.65231399      -4.54558534       5.97908423
H       -2.03171562      -5.10816547       5.53998893
H       -2.71070926      -3.64138436       4.78343770
H       -0.17809446      -3.02055995       5.70695074
