170
Properties=species:S:1:pos:R:3 pbc="F F F"
O        2.91972790       8.52673248      -2.26549981
C        3.61939016       7.53837177      -2.03925075
C        3.40203652       6.19998646      -2.74310457
O        2.91177306       5.23391875      -1.81827320
C        2.78762295       3.94739203      -2.26011437
C        3.38583398       3.40956451      -3.40131182
C        3.18160324       2.06664658      -3.73660586
C        2.37875809       1.25722310      -2.93557308
C        1.79160683       1.79160683      -1.79160683
C        1.99955148       3.12745256      -1.44842778
N        4.67647638       7.60020382      -1.15477874
N        5.44492022       6.50843513      -0.89226693
C        6.32904360       6.61300955       0.04416080
C        6.67714352       7.81979225       0.91656909
O        6.16914747       8.91504168       0.82155372
N        7.65562893       7.37513882       1.77936056
C        7.95795072       6.03007685       1.54002467
C        8.86020689       5.21585031       2.19159706
Br       9.91273130       5.84974201       3.62308530
C        8.97680811       3.88359012       1.76831901
C        8.19125558       3.38178352       0.70234273
C        8.32209941       1.95186965       0.25824359
C        7.27729539       4.22265919       0.05252844
C        7.19077780       5.52882830       0.49393787
H        4.36017807       5.90706942      -3.18799522
H        2.66619457       6.34914399      -3.54110304
H        4.02562204       4.00011296      -4.04875129
H        3.65056207       1.65360080      -4.62697534
H        2.21827825       0.21772532      -3.20850945
H        1.54254447       3.54455247      -0.55474149
H        4.82572592       8.47584691      -0.65002666
H        8.08320967       7.95196454       2.48956692
H        9.68044222       3.22076756       2.27088580
H        9.05603974       1.40888514       0.86285724
H        8.64901906       1.91157133      -0.78556048
H        7.36051448       1.43812363       0.35481324
H        6.65041108       3.86780321      -0.76091403
O       -3.34157523      -1.91228093      -8.45810403
C       -2.82577226      -2.70375851      -7.66748190
C       -3.29026356      -2.83669368      -6.21817031
O       -2.28913400      -2.33961791      -5.33521310
C       -2.49470966      -2.50537492      -3.99504478
C       -3.40530700      -3.38500677      -3.40639653
C       -3.50960817      -3.46196258      -2.01328493
C       -2.70728089      -2.66049618      -1.20377720
C       -1.79160683      -1.79160683      -1.79160683
C       -1.67774459      -1.71788135      -3.17980588
N       -1.81334302      -3.55212179      -8.06599412
N       -1.23206553      -4.41975121      -7.19380554
C       -0.20459903      -5.08392539      -7.60936793
C        0.46868714      -5.06673847      -8.98231534
O        0.09019118      -4.41948124      -9.93334537
N        1.54309678      -5.92286578      -8.87163819
C        1.61210111      -6.47311842      -7.58698560
C        2.53934792      -7.35341537      -7.07039268
Br       3.97357084      -8.00411672      -8.10884214
C        2.39834677      -7.75626301      -5.73416297
C        1.33566099      -7.27468258      -4.93167479
C        1.19511500      -7.71065794      -3.50018251
C        0.40325355      -6.37850649      -5.47217320
C        0.57148877      -6.00552042      -6.79163659
H       -3.51525462      -3.89546187      -6.04452622
H       -4.20794641      -2.25017189      -6.09832331
H       -4.04323819      -4.03400103      -3.99724707
H       -4.22094771      -4.14938317      -1.56080733
H       -2.80138198      -2.72026825      -0.12286279
H       -0.96206860      -1.04078234      -3.63898748
H       -1.46543959      -3.46364310      -9.02251680
H        2.19033195      -6.11261835      -9.62332088
H        3.12131512      -8.44821113      -5.30342797
H        1.99921232      -8.39386553      -3.20741444
H        0.24243878      -8.23050698      -3.35808267
H        1.23384255      -6.84136644      -2.83630097
H       -0.41729088      -5.97999589      -4.88184154
O       -1.35338231       8.19963543       4.15894245
C       -2.15674698       7.58050742       3.45975826
C       -2.51149812       6.11692942       3.71670002
O       -1.99359985       5.29679313       2.67357202
C       -2.33515424       3.97430230       2.68567282
C       -3.38518241       3.40378030       3.40774760
C       -3.63227344       2.02923163       3.32335061
C       -2.83160826       1.21993998       2.52000603
C       -1.79160683       1.79160683       1.79160683
C       -1.54703073       3.16281284       1.86558824
N       -2.81775938       8.19657003       2.41712952
N       -3.69701295       7.51425307       1.63435626
C       -4.17269171       8.12522700       0.59997363
C       -3.91389539       9.55205883       0.11441246
O       -3.21685645      10.36326742       0.68251155
N       -4.63233537       9.67445531      -1.05538350
C       -5.31125696       8.48703441      -1.35028846
C       -6.11837064       8.19591143      -2.42982194
Br      -6.45807079       9.46497403      -3.78365681
C       -6.68480442       6.91498872      -2.50771392
C       -6.43739802       5.94218623      -1.50888788
C       -7.04721111       4.57169951      -1.60318515
C       -5.61259050       6.25424359      -0.41940795
C       -5.07399043       7.52555888      -0.37388108
H       -3.60316541       6.05595478       3.79612252
H       -2.06474627       5.81970350       4.67199184
H       -4.03935026       3.99674163       4.03839441
H       -4.45196558       1.59084006       3.88833258
H       -3.02507461       0.15194323       2.46749517
H       -0.73619274       3.60962322       1.29602247
H       -2.57760072       9.16709972       2.20689905
H       -4.65118648      10.51273040      -1.61830959
H       -7.32277794       6.66117856      -3.35363252
H       -7.65054279       4.46189970      -2.51037485
H       -7.69753142       4.39029286      -0.74167342
H       -6.26102001       3.81064638      -1.62784152
H       -5.39196690       5.52855823       0.35860319
O        3.53553924      -1.76536097       8.41105999
C        2.97368718      -2.56366646       7.65965903
C        3.39070866      -2.75230463       6.20211426
O        2.37850756      -2.25137141       5.33408603
C        2.53914147      -2.46192170       3.99406619
C        3.40592731      -3.38499277       3.40579023
C        3.46636680      -3.50533159       2.01315729
C        2.66380047      -2.70407236       1.20368144
C        1.79160683      -1.79160683       1.79160683
C        1.72137449      -1.67435269       3.17970464
N        1.94945134      -3.36956609       8.11244150
N        1.31754393      -4.24436699       7.28371136
C        0.28412569      -4.86529457       7.74847208
C       -0.34713906      -4.78828949       9.13921624
O        0.07813202      -4.12534034      10.05916307
N       -1.44871079      -5.61484234       9.08527563
C       -1.57189760      -6.19976034       7.82014016
C       -2.53923812      -7.06660419       7.35709407
Br      -3.96009637      -7.64390449       8.45557990
C       -2.44987071      -7.51200052       6.02994941
C       -1.39808914      -7.08576303       5.18302249
C       -1.31297652      -7.56700332       3.76169865
C       -0.42441978      -6.20251546       5.66933046
C       -0.54236238      -5.78662825       6.98140237
H        3.57966922      -3.82189520       6.05367828
H        4.32100796      -2.19712574       6.03830791
H        4.04213419      -4.03534074       3.99701136
H        4.14369342      -4.22647257       1.56097222
H        2.72385613      -2.79789808       0.12275881
H        1.03961622      -0.96320093       3.63902128
H        1.63293450      -3.24309198       9.07557301
H       -2.07846561      -5.76336422       9.86070867
H       -3.20509513      -8.19426385       5.64115526
H       -2.14489248      -8.23411938       3.51284074
H       -0.38041397      -8.11892697       3.60763786
H       -1.34629645      -6.71653171       3.07358962
H        0.38935092      -5.84591202       5.04386537
C       -0.00445707       0.01189536      -1.78238275
H       -0.66409135       0.67374010      -2.43557963
H        0.65740317      -0.63156657      -2.45157240
C       -0.90989263      -0.90692880      -0.91072765
C        0.90977584       0.90977584      -0.90977584
C       -0.00465871       1.77757030       0.00794375
H       -0.66225468       2.44313916      -0.64384735
H        0.64322798       2.43503045       0.67728295
C       -1.78241447       0.00034974      -0.00472694
H       -2.45427497      -0.65498947       0.64260836
H       -2.43311707       0.67328779      -0.65473579
C       -0.91132561       0.90220522       0.91563759
C       -0.01476271      -0.02253852       1.78660255
H       -0.67934791      -0.69751639       2.42135241
H        0.63392994       0.61504881       2.47327442
C        0.01484550      -1.77751727      -0.01636693
H        0.67870853      -2.42144646      -0.68295456
H       -0.62264859      -2.45592969       0.64226336
C        1.78714474       0.01002794       0.00389507
H        2.44202412       0.67113390       0.66197326
H        2.45385902      -0.65136977      -0.64189061
C        0.91606151      -0.90478549       0.90901405
