178
Properties=species:S:1:pos:R:3 pbc="F F F"
O        2.91972790       8.52673248      -2.26549981
C        3.61939016       7.53837177      -2.03925075
C        3.40203652       6.19998646      -2.74310457
O        2.91177306       5.23391875      -1.81827320
C        2.78762295       3.94739203      -2.26011437
C        3.38583398       3.40956451      -3.40131182
C        3.18160324       2.06664658      -3.73660586
C        2.37875809       1.25722310      -2.93557308
C        1.79160683       1.79160683      -1.79160683
C        1.99955148       3.12745256      -1.44842778
N        4.67647638       7.60020382      -1.15477874
N        5.44492022       6.50843513      -0.89226693
C        6.32904360       6.61300955       0.04416080
C        6.67714352       7.81979225       0.91656909
O        6.16914747       8.91504168       0.82155372
N        7.65562893       7.37513882       1.77936056
C        7.95795072       6.03007685       1.54002467
C        8.86020689       5.21585031       2.19159706
C        8.97680811       3.88359012       1.76831901
C        8.19125558       3.38178352       0.70234273
C        8.32209941       1.95186965       0.25824359
C        7.27729539       4.22265919       0.05252844
C        7.19077780       5.52882830       0.49393787
H        4.36017807       5.90706942      -3.18799522
H        2.66619457       6.34914399      -3.54110304
H        4.02562204       4.00011296      -4.04875129
H        3.65056207       1.65360080      -4.62697534
H        2.21827825       0.21772532      -3.20850945
H        1.54254447       3.54455247      -0.55474149
H        4.82572592       8.47584691      -0.65002666
H        8.08320967       7.95196454       2.48956692
H        9.68044222       3.22076756       2.27088580
H        9.05603974       1.40888514       0.86285724
H        8.64901906       1.91157133      -0.78556048
H        7.36051448       1.43812363       0.35481324
H        6.65041108       3.86780321      -0.76091403
C        9.66362904       5.69971807       3.28429319
C       10.33649509       6.10495732       4.19942620
Br      11.42446258       6.76019491       5.67911888
O       -5.26330060      -0.83536170      -7.61329790
C       -4.35835860      -1.58830381      -7.25035026
C       -4.30530426      -2.19189588      -5.84792741
O       -3.22376773      -1.62788206      -5.11231521
C       -2.95835967      -2.15592427      -3.88084542
C       -3.41036243      -3.38634361      -3.40000426
C       -3.05579727      -3.81337750      -2.11568091
C       -2.25103911      -3.01351211      -1.30700305
C       -1.79160683      -1.79160683      -1.79160683
C       -2.13508293      -1.36572128      -3.07462760
N       -3.35191390      -1.96307766      -8.11646737
N       -2.34358984      -2.78481790      -7.71721454
C       -1.37138072      -2.98119559      -8.54531603
C       -1.18137384      -2.43716075      -9.96183209
O       -1.97608848      -1.73721200     -10.54933495
N        0.04219706      -2.91814865     -10.37545559
C        0.63277176      -3.70236430      -9.37841037
C        1.85243328      -4.34566761      -9.39122581
C        2.23122441      -5.07125311      -8.25205051
C        1.38919286      -5.14401505      -7.11587419
C        1.80569743      -5.92212720      -5.89929568
C        0.15365824      -4.48212501      -7.11895938
C       -0.18788431      -3.77949683      -8.25828709
H       -4.21271124      -3.27798514      -5.96454632
H       -5.25015895      -1.96426869      -5.34201397
H       -4.03109588      -4.04541094      -3.99797947
H       -3.41111673      -4.77309409      -1.74692740
H       -1.98805985      -3.34899756      -0.30745561
H       -1.77545120      -0.41261285      -3.45377437
H       -3.34899361      -1.55118546      -9.05142042
H        0.44929369      -2.71729449     -11.27760647
H        3.19216848      -5.58447589      -8.23801657
H        2.79652122      -6.37003091      -6.02855796
H        1.09257822      -6.73025746      -5.70847162
H        1.84566109      -5.26314885      -5.02633711
H       -0.51180893      -4.50692494      -6.26039444
C        2.73060929      -4.27914729     -10.53051591
C        3.46608170      -4.22343653     -11.48467137
Br       4.65527838      -4.13335693     -13.02746006
O       -3.42183924       8.43976751       1.85035345
C       -4.05427235       7.38682777       1.75591256
C       -3.67744677       6.12971726       2.53796351
O       -3.18120853       5.13141628       1.65134019
C       -2.92079702       3.89770399       2.17662836
C       -3.38659513       3.41067131       3.39944387
C       -3.04999613       2.11828453       3.81657502
C       -2.24648379       1.30904753       3.01602295
C       -1.79160683       1.79160683       1.79160683
C       -2.13191492       3.07604945       1.36746745
N       -5.17604470       7.29777593       0.95763831
N       -5.87119357       6.13398432       0.84044439
C       -6.82839300       6.09614447      -0.02664512
C       -7.33713221       7.19905502      -0.95582056
O       -6.91364960       8.33329920      -0.98431337
N       -8.33822229       6.61422440      -1.70103951
C       -8.51209612       5.27408565      -1.33817886
C       -9.39175956       4.34469925      -1.85199867
C       -9.36832688       3.04603489      -1.32228255
C       -8.46730751       2.69216040      -0.28877154
C       -8.44858124       1.29705430       0.27008992
C       -7.57829663       3.64876670       0.22036281
C       -7.63087648       4.91778429      -0.32299254
H       -4.57283216       5.80291980       3.07949075
H       -2.89848382       6.39747355       3.26048424
H       -4.02183126       4.00213754       4.05051749
H       -3.41616311       1.74466252       4.77031258
H       -1.98255609       0.30992576       3.35203117
H       -1.77820274       3.45253945       0.41109624
H       -5.43289440       8.11614113       0.40256396
H       -8.86291587       7.09817683      -2.41548543
H      -10.05167531       2.29402305      -1.71537438
H       -9.17936605       0.65363830      -0.23093670
H       -8.69223200       1.31693322       1.33698564
H       -7.45853477       0.85050411       0.13478599
H       -6.86573570       3.40867706       1.00471555
C      -10.31108725       4.67724846      -2.90928180
C      -11.08102419       4.95575843      -3.79475642
Br     -12.32594711       5.40608549      -5.22649399
O        3.07176292      -2.13263564       8.50756164
C        2.62284800      -2.91013401       7.66403067
C        3.15137855      -2.96215584       6.23159316
O        2.16688590      -2.46923387       5.32784523
C        2.43389214      -2.56924152       3.99199569
C        3.40439811      -3.38508853       3.40722367
C        3.56868720      -3.39833122       2.01783726
C        2.76668981      -2.59655758       1.20830688
C        1.79160683      -1.79160683       1.79160683
C        1.61811149      -1.78177012       3.17555020
N        1.63203150      -3.81533459       7.98409284
N        1.12432977      -4.66805289       7.05323962
C        0.10996302      -5.39072533       7.39720399
C       -0.61895144      -5.45952539       8.73979273
O       -0.30751419      -4.83843383       9.73171579
N       -1.65051517      -6.35332608       8.54859627
C       -1.64350573      -6.85073694       7.24077169
C       -2.51055677      -7.74537111       6.64964580
C       -2.29807794      -8.08486123       5.30529593
C       -1.22497679      -7.52655061       4.56912255
C       -1.00765132      -7.89507300       3.12830378
C       -0.35442652      -6.61687213       5.18498053
C       -0.59213575      -6.30758985       6.51021413
H        3.42815206      -4.00249749       6.02459316
H        4.04738275      -2.33407567       6.17498319
H        4.04472308      -4.03205879       3.99770442
H        4.32653697      -4.03623743       1.56836381
H        2.90731519      -2.60635656       0.13084126
H        0.85609855      -1.15463007       3.63110981
H        1.24190355      -3.78194725       8.92774869
H       -2.31924080      -6.60118742       9.26366065
H       -2.97273269      -8.78678808       4.81626859
H       -1.76930029      -8.59746245       2.77390548
H       -0.02869599      -8.36905977       3.00578708
H       -1.05621435      -7.00060888       2.49943034
H        0.47182807      -6.16040913       4.64689111
C       -3.61465545      -8.31966713       7.37404224
C       -4.53933809      -8.80064004       7.98072426
Br      -6.03447171      -9.57833256       8.96167777
C       -0.00445707       0.01189536      -1.78238275
H       -0.66409135       0.67374010      -2.43557963
H        0.65740317      -0.63156657      -2.45157240
C       -0.90989263      -0.90692880      -0.91072765
C        0.90977584       0.90977584      -0.90977584
C       -0.00465871       1.77757030       0.00794375
H       -0.66225468       2.44313916      -0.64384735
H        0.64322798       2.43503045       0.67728295
C       -1.78241447       0.00034974      -0.00472694
H       -2.45427497      -0.65498947       0.64260836
H       -2.43311707       0.67328779      -0.65473579
C       -0.91132561       0.90220522       0.91563759
C       -0.01476271      -0.02253852       1.78660255
H       -0.67934791      -0.69751639       2.42135241
H        0.63392994       0.61504881       2.47327442
C        0.01484550      -1.77751727      -0.01636693
H        0.67870853      -2.42144646      -0.68295456
H       -0.62264859      -2.45592969       0.64226336
C        1.78714474       0.01002794       0.00389507
H        2.44202412       0.67113390       0.66197326
H        2.45385902      -0.65136977      -0.64189061
C        0.91606151      -0.90478549       0.90901405
