157
Properties=species:S:1:pos:R:3 pbc="F F F"
C        0.00000000       0.00000000       0.00000000
O        2.00982388       7.61682846      -1.35559579
C        2.70948613       6.62846774      -1.12934672
C        2.49213250       5.29008244      -1.83320054
O        2.00186904       4.32401472      -0.90836917
C        1.87771893       3.03748801      -1.35021035
C        2.47592996       2.49966049      -2.49140779
C        2.27169921       1.15674255      -2.82670184
C        1.46885407       0.34731907      -2.02566906
C        0.88170281       0.88170281      -0.88170281
C        1.08964746       2.21754853      -0.53852375
N        3.76657235       6.69029979      -0.24487471
N        4.53501620       5.59853110       0.01763710
C        5.41913958       5.70310552       0.95406482
C        5.76723950       6.90988822       1.82647311
O        5.25924344       8.00513766       1.73145774
N        6.74572490       6.46523479       2.68926458
C        7.04804670       5.12017282       2.44992869
C        7.95030286       4.30594629       3.10150108
C        8.06690408       2.97368609       2.67822303
C        7.28135156       2.47187950       1.61224675
C        7.41219538       1.04196562       1.16814762
C        6.36739136       3.31275517       0.96243246
C        6.28087378       4.61892428       1.40384190
H        3.45027405       4.99716539      -2.27809120
H        1.75629054       5.43923997      -2.63119902
H        3.11571802       3.09020894      -3.13884727
H        2.74065805       0.74369678      -3.71707131
H        1.30837423      -0.69217871      -2.29860542
H        0.63264045       2.63464844       0.35516254
H        3.91582189       7.56594288       0.25987736
H        7.17330564       7.04206051       3.39947095
H        8.77053820       2.31086354       3.18078983
H        8.14613572       0.49898111       1.77276126
H        7.73911503       1.00166730       0.12434355
H        6.45061046       0.52821960       1.26471727
H        5.74050706       2.95789918       0.14899000
C        8.75372501       4.78981405       4.19419722
C        9.42659106       5.19505330       5.10933023
Br      10.51455856       5.85029089       6.58902291
O       -3.06427442      -0.55632787      -7.36164582
C       -2.40415335      -1.36078735      -6.70235990
C       -2.70969342      -1.66829052      -5.23743154
O       -1.67501603      -1.15612202      -4.40311488
C       -1.73176732      -1.46084089      -3.07280907
C       -2.49733072      -2.47518613      -2.49448139
C       -2.45645401      -2.68665868      -1.11203091
C       -1.65334161      -1.88582848      -0.30267211
C       -0.88170281      -0.88170281      -0.88170281
C       -0.91232973      -0.67292965      -2.26046037
N       -1.36397179      -2.06603318      -7.27174189
N       -0.62409007      -2.94682414      -6.54499600
C        0.41279742      -3.46651245      -7.11446525
C        0.94317776      -3.25998753      -8.53384484
O        0.41625651      -2.57054108      -9.37863878
N        2.09568404      -4.01247644      -8.60490271
C        2.34006782      -4.66621226      -7.39214639
C        3.38891050      -5.49356242      -7.05009614
C        3.41702928      -6.02653747      -5.75285895
C        2.39975684      -5.72598200      -4.81475914
C        2.44068921      -6.30028658      -3.42641602
C        1.34201885      -4.88125954      -5.17847338
C        1.34522188      -4.37669811      -6.46447992
H       -2.82061834      -2.75536688      -5.14954542
H       -3.65996804      -1.18822158      -4.97853991
H       -3.12962820      -3.12830342      -3.08684260
H       -3.05519763      -3.47865198      -0.66757653
H       -1.63467620      -2.05127026       0.77114552
H       -0.30902376       0.10986281      -2.71296540
H       -1.12140914      -1.85827266      -8.24220561
H        2.68005249      -4.06932219      -9.42662551
H        4.23806173      -6.67965984      -5.45901380
H        3.32774104      -6.92437639      -3.27572022
H        1.55713541      -6.92216492      -3.25140928
H        2.46657413      -5.49446130      -2.68622563
H        0.55126017      -4.62013615      -4.48054026
C        4.44031728      -5.80681677      -7.98284235
C        5.32087046      -6.06916729      -8.76401730
Br       6.74465047      -6.49336588     -10.02711113
O       -2.17013775       7.59642862       1.21568176
C       -2.84964025       6.58538376       1.03227659
C       -2.58045179       5.27136787       1.76359583
O       -2.08885034       4.29445009       0.85095250
C       -1.92069453       3.02320049       1.32152227
C       -2.47615177       2.50004257       2.49080390
C       -2.22918588       1.17170707       2.85425065
C       -1.42612649       0.36233435       2.05338135
C       -0.88170281       0.88170281       0.88170281
C       -1.13239601       2.20267527       0.51064847
N       -3.92977112       6.59801320       0.17396253
N       -4.67626397       5.48097444      -0.04132820
C       -5.58594083       5.53931399      -0.95707454
C       -5.98663175       6.71421248      -1.85018963
O       -5.50470078       7.82391128      -1.79568871
N       -6.97466753       6.22320591      -2.67617833
C       -7.23627515       4.87758615      -2.39557047
C       -8.13335676       4.02457427      -3.00318296
C       -8.20508806       2.70111840      -2.54383932
C       -7.38047878       2.24666068      -1.48615516
C       -7.46341550       0.82579196      -1.00319407
C       -6.47242878       3.12655237      -0.88126709
C       -6.43054579       4.42271552      -1.35730515
H       -3.51932281       4.96607930       2.24012853
H       -1.82893934       5.45933221       2.53845799
H       -3.11448427       3.09081910       3.13947085
H       -2.66495518       0.77004656       3.76642440
H       -1.23223331      -0.66547189       2.34803952
H       -0.70875794       2.60800303      -0.40463461
H       -4.11403684       7.45640015      -0.34854957
H       -7.43455665       6.77072711      -3.38938855
H       -8.90383268       2.00820954      -3.01143031
H       -8.19807735       0.24926589      -1.57498767
H       -7.76296565       0.80413315       0.04933999
H       -6.49167722       0.33396415      -1.11152858
H       -5.81647867       2.80849667      -0.07555910
C       -8.97603241       4.45997150      -4.08666207
C       -9.68177327       4.82461668      -4.99407582
Br     -10.82289656       5.41421710      -6.46128712
O        4.56294313       0.14213206       6.56143705
C        3.62439931      -0.59263425       6.25026704
C        3.50869563      -1.23685749       4.86986235
O        2.42224547      -0.66176514       4.15024231
C        2.10209657      -1.21858444       2.94473628
C        2.50086616      -2.47677955       2.48935252
C        2.09306785      -2.93149176       1.23058399
C        1.28803641      -2.13174152       0.42206427
C        0.88170281      -0.88170281       0.88170281
C        1.27834656      -0.42782783       2.13954536
N        2.63478874      -0.90880917       7.15814895
N        1.58971344      -1.71015605       6.81604071
C        0.63856169      -1.85034966       7.67926892
C        0.51006212      -1.25752735       9.08306514
O        1.34394844      -0.56535873       9.62361619
N       -0.71398786      -1.68680188       9.54888109
C       -1.35942813      -2.48212028       8.59559868
C       -2.59718054      -3.08593399       8.66599461
C       -3.03373252      -3.83370646       7.56239320
C       -2.23058202      -3.96770717       6.40385915
C       -2.70885917      -4.76913292       5.22573964
C       -0.97590182      -3.34533917       6.34827672
C       -0.57725969      -2.61932211       7.45389374
H        3.38665711      -2.31541059       5.02346294
H        4.44363903      -1.05472872       4.32836178
H        3.11970936      -3.13650583       3.08855902
H        2.40706192      -3.91276770       0.88159652
H        0.98351899      -2.48917417      -0.55789222
H        0.96017017       0.54730021       2.49925639
H        2.67396223      -0.46863064       8.07929455
H       -1.08608900      -1.44571023      10.45627397
H       -4.00988631      -4.31654805       7.59395017
H       -3.70834576      -5.18139374       5.39930759
H       -2.02716207      -5.60481507       5.03878578
H       -2.75617100      -4.13622629       4.33405751
H       -0.33892069      -3.41736446       5.47097247
C       -3.43653324      -2.95693340       9.82894169
C       -4.13949113      -2.84889540      10.80290986
Br      -5.27611458      -2.67420710      12.37773401
