141
Properties=species:S:1:pos:R:3 pbc="F F F"
C        0.00000000       0.00000000       0.00000000
C        0.88161430       0.88161430      -0.88161430
C        1.68583662       0.29691939      -1.85893371
C        2.49441677       1.10088003      -2.66935734
C        2.50567518       2.49275656      -2.49339092
C        1.67892824       3.06821807      -1.51727075
C        0.87061024       2.26407100      -0.70919318
C        3.34506835       3.40157100      -3.32981719
O        3.00208296       4.57168962      -3.47332162
N        4.48479442       2.83275690      -3.87328837
N        5.30003617       3.56633287      -4.68907195
C        6.31111231       2.94246263      -5.20339697
C        6.71134830       1.47580808      -5.02755961
O        6.10838577       0.69169741      -4.32038569
N        7.83196210       1.30246398      -5.81704378
C        8.55012877       0.06571396      -5.96338168
C        8.17855618       2.50387657      -6.45585456
C        9.22355569       2.74964363      -7.32587023
C        9.35520704       4.04851166      -7.83647896
C        8.45001661       5.06490687      -7.46983958
C        7.39607665       4.81353583      -6.59348300
C        7.29174360       3.52498570      -6.10856436
H        1.68506893      -0.78061965      -2.00451733
H        3.08404186       0.61969187      -3.44503083
H        1.66427074       4.14904276      -1.38411432
H        0.23836642       2.72685941       0.04419708
H        4.76002479       1.87669154      -3.64804246
H        8.06641876      -0.72575641      -5.38373419
H        9.57345789       0.19709313      -5.60022392
H        8.56338437      -0.22426355      -7.01802679
H        9.92518158       1.97545363      -7.61672172
H       10.16885587       4.26784156      -8.52563269
H        6.68560611       5.57975665      -6.30055066
C        8.61845312       6.38729059      -8.01438566
C        8.75951870       7.49478695      -8.47044301
Br       8.98760982       9.28551490      -9.20784917
C       -0.88161430      -0.88161430      -0.88161430
C       -1.27294108      -0.42815385      -2.14059480
C       -2.07988126      -1.23289462      -2.95187826
C       -2.50475751      -2.49021099      -2.49685417
C       -2.08951838      -2.94006183      -1.23483684
C       -1.28228039      -2.13572674      -0.42586729
C       -3.36359229      -3.39400699      -3.31885726
O       -3.32841586      -4.60414161      -3.11453673
N       -4.16562388      -2.76728766      -4.25792815
N       -4.95861513      -3.50596802      -5.09085783
C       -5.63101396      -2.84669677      -5.97926117
C       -5.64638731      -1.33722012      -6.23110855
O       -5.01624395      -0.53585827      -5.56836664
N       -6.48591327      -1.15266905      -7.31288754
C       -6.79446383       0.12040889      -7.90516947
C       -7.00274662      -2.38139878      -7.75414192
C       -7.86791336      -2.62825176      -8.80290443
C       -8.23623684      -3.95898492      -9.04497590
C       -7.73862794      -5.00471107      -8.24142405
C       -6.86487830      -4.75275620      -7.18546097
C       -6.51960745      -3.43293161      -6.97275459
H       -0.94951503       0.54434934      -2.50380092
H       -2.34011244      -0.86714100      -3.94151111
H       -2.39673208      -3.92226457      -0.87843116
H       -0.97234273      -2.49920288       0.55051685
H       -4.21237510      -1.75030789      -4.32207581
H       -6.24751270       0.91920169      -7.39608552
H       -7.86767654       0.31070835      -7.81380675
H       -6.50646037       0.10969702      -8.96038425
H       -8.25591041      -1.83230578      -9.42914074
H       -8.91497659      -4.18064706      -9.86670647
H       -6.46685110      -5.54251327      -6.55654905
C       -8.14073879      -6.35899350      -8.52039709
C       -8.47750662      -7.49320504      -8.75403701
Br      -9.02203173      -9.32712917      -9.13181300
C       -0.88161430       0.88161430       0.88161430
C       -1.64840869       1.89141996       0.30186107
C       -2.45810716       2.70087292       1.10567406
C       -2.49170635       2.50551543       2.49460090
C       -1.72762610       1.47500256       3.06178839
C       -0.92016577       0.66618056       2.25752809
C       -3.33854321       3.33548080       3.40243253
O       -3.69810508       2.86919665       4.47979246
N       -3.63897441       4.60743311       2.94443217
N       -4.44256922       5.43332586       3.67954590
C       -4.72286955       6.58194094       3.15216142
C       -4.27998146       7.13790834       1.79682618
O       -3.54784632       6.54285212       1.02977043
N       -4.88302866       8.37662378       1.69181742
C       -4.74910571       9.26254825       0.56757045
C       -5.64355758       8.65615235       2.83857738
C       -6.39783600       9.77850464       3.12272891
C       -7.07504024       9.81559089       4.34956653
C       -6.98434654       8.74199437       5.25842215
C       -6.22417358       7.61065742       4.96826448
C       -5.57015637       7.60284707       3.75229022
H       -1.63054144       2.05184545      -0.77342027
H       -3.07043666       3.45683970       0.62148819
H       -1.76016234       1.30088347       4.13638200
H       -0.33245321      -0.12586141       2.71443695
H       -3.23997000       4.96740145       2.07738734
H       -4.12545352       8.80436609      -0.20542308
H       -4.28023753      10.19457007       0.89596734
H       -5.73802868       9.47034526       0.14877367
H       -6.47669974      10.60989378       2.43076341
H       -7.67801959      10.68759899       4.59671153
H       -6.14322636       6.77131895       5.65136811
C       -7.69356545       8.81715862       6.50940531
C       -8.28753628       8.88010867       7.55710371
Br      -9.24793689       8.98189359       9.25114341
C        0.88161430      -0.88161430       0.88161430
C        0.96616761      -2.24956375       0.62595837
C        1.77326943      -3.06078980       1.43059491
C        2.48895029      -2.50246905       2.50040333
C        2.40708276      -1.12203485       2.73529944
C        1.60147480      -0.31248630       1.92991333
C        3.36841843      -3.31714297       3.39089514
O        4.29681809      -2.77055073       3.97972538
N        3.03866355      -4.65823554       3.49394060
N        3.80463331      -5.50076352       4.25004415
C        3.46282052      -6.74942481       4.24472658
C        2.31184868      -7.41556948       3.48729783
O        1.52348873      -6.80902765       2.78795248
N        2.40650978      -8.76193179       3.78302829
C        1.52300195      -9.77764458       3.27857788
C        3.48391052      -9.00406711       4.65030968
C        3.91654407     -10.20646967       5.17605582
C        5.03160305     -10.18329334       6.02530126
C        5.68379245      -8.97132183       6.32964878
C        5.24612421      -7.76045835       5.79651291
C        4.14686963      -7.81557441       4.96284962
H        0.41624588      -2.69322336      -0.20050264
H        1.84602343      -4.11701639       1.18572474
H        2.97306614      -0.67371164       3.55065004
H        1.54768683       0.75488474       2.12822666
H        2.20378642      -5.03554627       3.04542611
H        0.78287164      -9.33717978       2.60434511
H        1.00292553     -10.25223383       4.11561558
H        2.10369388     -10.52429022       2.72916351
H        3.42412423     -11.14543872       4.94779398
H        5.39395016     -11.11740970       6.45097027
H        5.73511498      -6.81646892       6.01432952
C        6.82551107      -8.98757891       7.20703939
C        7.78170042      -9.00119421       7.94185403
Br       9.32777772      -9.02320901       9.12998716
