153
Properties=species:S:1:pos:R:3 pbc="F F F"
C        0.00000000       0.00000000       0.00000000
C        4.25700521       3.83464038      -3.15213273
O        2.92357518       3.45416616      -3.47859561
C        2.32528114       2.58771884      -2.60168187
C        0.94183087       2.49074181      -2.71577264
C        0.22459676       1.65460848      -1.86031182
C        0.89069018       0.89069018      -0.89069018
C        2.29137081       0.94510156      -0.77441843
C        3.05662056       0.15988640       0.22427186
H        2.49606616      -0.21104022       1.07573811
N        4.37427898      -0.02335630       0.04902484
N        4.93230147      -0.78243807       1.11100101
C        6.28456736      -1.02780107       1.20227051
O        6.72986668      -1.70837036       2.13120096
C        7.16777112      -0.42800594       0.09985113
O        8.55069682      -0.68163829       0.36257937
C        9.40450636      -0.53785550      -0.69346939
C       10.60555383      -1.24105994      -0.57084737
C       11.56297694      -1.19642526      -1.58326099
C       11.32851911      -0.42838918      -2.72209897
C       10.13947896       0.29410453      -2.83232789
C        9.17547480       0.24792863      -1.82308001
C        2.98601195       1.81292589      -1.64512828
H        4.56667344       4.60387420      -3.86597400
H        4.94985764       2.99308692      -3.25487007
H        4.30825298       4.27264278      -2.14917348
H        0.41946877       3.07687542      -3.46524899
H       -0.85597848       1.60228372      -1.95532516
H        4.32623721      -1.16890010       1.82129112
H        7.00801281       0.65615173       0.07598715
H        6.87024791      -0.89281972      -0.84894957
H       10.77945280      -1.84219428       0.31877048
H       12.48346226      -1.76324484      -1.48237067
H       12.07278141      -0.39771652      -3.51234519
H        8.26183046       0.82574746      -1.92403611
H        4.06685146       1.85712871      -1.55220313
C        9.90853702       1.09898866      -4.00383434
C        9.71512314       1.77307911      -4.98497099
Br       9.40238926       2.86302637      -6.57138597
C       -4.37795812      -3.31836725      -3.54745294
O       -3.04015586      -3.63882105      -3.17736003
C       -2.38233754      -2.68009870      -2.45224560
C       -1.23260118      -3.11539975      -1.80034439
C       -0.49370861      -2.23017211      -1.01563634
C       -0.89069018      -0.89069018      -0.89069018
C       -2.03061206      -0.41603843      -1.56424030
C       -2.50100173       0.98789983      -1.47913321
H       -2.13984062       1.56532517      -0.63477237
N       -3.35103868       1.45533954      -2.40619870
N       -3.69776500       2.80771562      -2.14881301
C       -4.62561304       3.48229391      -2.91117664
O       -4.88689254       4.66413639      -2.66753921
C       -5.28030662       2.69393293      -4.05354036
O       -6.28229137       3.48021646      -4.70440424
C       -6.67546438       3.05725448      -5.94191035
C       -7.24268275       4.05099463      -6.74365313
C       -7.67401329       3.76162886      -8.03742824
C       -7.55516453       2.46390081      -8.53096519
C       -7.01187514       1.46616894      -7.72020517
C       -6.57362830       1.75282973      -6.42568488
C       -2.76494507      -1.34129974      -2.33782131
H       -4.81327985      -4.20490340      -4.01833840
H       -4.40648255      -2.50806958      -4.28326250
H       -4.98445353      -3.07852583      -2.66708989
H       -0.91759171      -4.14985612      -1.89414536
H        0.39317694      -2.59138749      -0.50341985
H       -3.24760500       3.30373501      -1.39217600
H       -5.75413504       1.79928394      -3.63332629
H       -4.48782960       2.42538379      -4.76393195
H       -7.32778873       5.06264723      -6.35334655
H       -8.09543046       4.54842538      -8.65558302
H       -7.88717879       2.24023751      -9.54046879
H       -6.16355215       0.95978269      -5.80784456
H       -3.64683632      -0.97494531      -2.85440168
C       -6.90570809       0.12317515      -8.22882707
C       -6.81679318      -1.00158215      -8.65479791
Br      -6.67302529      -2.82021958      -9.34355673
C       -3.10651703       4.02097433       4.11628695
O       -3.59714143       2.96992251       3.28927300
C       -2.66017807       2.34876977       2.50573401
C       -3.05053217       1.12329436       1.97451878
C       -2.16952515       0.39151385       1.17847806
C       -0.89069018       0.89069018       0.89069018
C       -0.48162374       2.14112831       1.38813876
C        0.85302814       2.72827083       1.11699242
H        1.62615488       2.03733790       0.79810481
N        1.04455364       4.04324427       1.30320721
N        2.38298915       4.41346153       1.00839001
C        2.84794199       5.69454445       1.20789331
O        4.01396756       5.98247665       0.92178626
C        1.84675602       6.70786439       1.77880568
O        2.47999891       7.96773428       2.01874378
C        1.65206162       9.04332161       2.16886026
C        2.24926792      10.27872979       1.90587939
C        1.51503507      11.45969533       2.00515242
C        0.17608643      11.41030640       2.38800893
C       -0.41270774      10.17792577       2.67527788
C        0.31756236       8.99216337       2.57188244
C       -1.39140066       2.84936893       2.20329653
H       -3.92866377       4.34779499       4.76006289
H       -2.79181310       4.88461205       3.52138948
H       -2.29721986       3.66789334       4.76495604
H       -4.03941411       0.73148850       2.19069056
H       -2.48692057      -0.56921167       0.78392150
H        3.01966317       3.72628773       0.62942143
H        1.46280718       6.32112407       2.72986050
H        1.03983069       6.82259234       1.04361611
H        3.29345895      10.30900604       1.60294096
H        1.98751342      12.41076262       1.77933890
H       -0.39646657      12.33022643       2.46071707
H       -0.15672874       8.04495914       2.80992614
H       -1.07344069       3.81280855       2.58993406
C       -1.79219212      10.13324815       3.08591975
C       -2.94751029      10.09583064       3.42983231
Br      -4.81556206      10.03532969       3.98590984
C        3.69164531      -3.22068405       4.33144896
O        3.52075837      -3.40618564       2.92939293
C        2.62091140      -2.56583596       2.32793449
C        2.70600023      -2.50186265       0.94048244
C        1.85306431      -1.66285602       0.22359672
C        0.89069018      -0.89069018       0.89069018
C        0.76138531      -0.95993304       2.28957246
C       -0.23770533      -0.17517347       3.05476697
H       -0.65123283       0.69412017       2.55464082
N       -0.55128974      -0.54821280       4.30497479
N       -1.50855238       0.33003123       4.87744600
C       -1.92353175       0.20701779       6.18504531
O       -2.77207481       0.97906659       6.64143676
C       -1.28932263      -0.92559282       7.00364386
O       -1.73936082      -0.88511608       8.36072390
C       -1.55644773      -2.02251273       9.09405525
C       -2.40795557      -2.14876821      10.19452861
C       -2.34083757      -3.26913358      11.02151666
C       -1.40292427      -4.26581860      10.75933458
C       -0.53555844      -4.12670310       9.67476671
C       -0.60297782      -3.00874206       8.84071921
C        1.65025460      -1.80709223       2.98671930
H        4.50816819      -3.87306791       4.65528555
H        2.79525514      -3.51612106       4.88643843
H        3.98021412      -2.18894902       4.56090610
H        3.44649768      -3.09821410       0.41688140
H        1.94336154      -1.61589812      -0.85762926
H       -1.91277286       1.06479541       4.31361426
H       -0.20071434      -0.79808920       6.99080254
H       -1.58224149      -1.87383524       6.53478401
H       -3.14066914      -1.36907943      10.39007776
H       -3.02179649      -3.36242241      11.86196218
H       -1.35426853      -5.14040887      11.40126973
H        0.08799244      -2.91513459       8.00848700
H        1.55222096      -1.85710842       4.06685392
C        0.44261079      -5.15160177       9.41714745
C        1.26182751      -6.00995441       9.20139132
Br       2.58643167      -7.39783803       8.85253190
