174
Properties=species:S:1:pos:R:3 pbc="F F F"
C        5.16690923       4.74454440      -4.06203676
O        3.83347920       4.36407018      -4.38849963
C        3.23518516       3.49762286      -3.51158589
C        1.85173489       3.40064583      -3.62567666
C        1.13450078       2.56451250      -2.77021585
C        1.80059420       1.80059420      -1.80059420
C        3.20127484       1.85500558      -1.68432246
C        3.96652459       1.06979042      -0.68563217
H        3.40597018       0.69886380       0.16583408
N        5.28418301       0.88654772      -0.86087919
N        5.84220550       0.12746595       0.20109698
C        7.19447138      -0.11789705       0.29236649
O        7.63977070      -0.79846633       1.22129694
C        8.07767514       0.48189808      -0.81005290
O        9.46060084       0.22826573      -0.54732465
C       10.31441038       0.37204852      -1.60337342
C       11.51545785      -0.33115591      -1.48075139
C       12.47288096      -0.28652123      -2.49316502
C       12.23842314       0.48151485      -3.63200299
C       11.04938298       1.20400856      -3.74223191
C       10.08537883       1.15783266      -2.73298404
C        3.89591597       2.72282992      -2.55503230
H        5.47657747       5.51377823      -4.77587803
H        5.85976166       3.90299094      -4.16477410
H        5.21815700       5.18254681      -3.05907751
H        1.32937279       3.98677945      -4.37515301
H        0.05392554       2.51218775      -2.86522918
H        5.23614124      -0.25899608       0.91138710
H        7.91791684       1.56605576      -0.83391687
H        7.78015193       0.01708431      -1.75885360
H       11.68935683      -0.93229025      -0.59113355
H       13.39336628      -0.85334082      -2.39227470
H       12.98268543       0.51218750      -4.42224921
H        9.17173448       1.73565148      -2.83394013
H        4.97675548       2.76703274      -2.46210716
C       10.81844104       2.00889268      -4.91373836
C       10.62502716       2.68298314      -5.89487501
Br      10.31229328       3.77293039      -7.48129000
C       -5.21040494      -4.66758664      -4.09549880
O       -3.83439171      -4.40120366      -4.35045365
C       -3.23551113      -3.51612398      -3.49275881
C       -1.84414680      -3.52003484      -3.51387574
C       -1.12763213      -2.67459005      -2.66700695
C       -1.80059420      -1.80059420      -1.80059420
C       -3.20620903      -1.75301653      -1.78137731
C       -3.97826873      -0.84913478      -0.89454367
H       -3.45067177      -0.45650409      -0.03182403
N       -5.26482800      -0.59141762      -1.17536430
N       -5.83674207       0.27715911      -0.20899150
C       -7.17107740       0.61805885      -0.23118929
O       -7.62754739       1.39147058       0.61606939
C       -8.01940155       0.00123555      -1.35146013
O       -9.39509393       0.36466647      -1.20576376
C      -10.18465955       0.20302534      -2.30819811
C      -11.33786340       0.99172909      -2.31891903
C      -12.22636888       0.93879072      -3.39194659
C      -11.97198331       0.07738793      -4.45734559
C      -10.83293469      -0.72882596      -4.43386280
C       -9.93755838      -0.67501897      -3.36361818
C       -3.90148735      -2.63259739      -2.63969345
H       -5.52596908      -5.46351097      -4.77675368
H       -5.83292840      -3.79119978      -4.30339853
H       -5.35960874      -5.02837698      -3.07179559
H       -1.31620102      -4.19177475      -4.18332949
H       -0.04215619      -2.70137564      -2.68781063
H       -5.25332716       0.67212367       0.51544543
H       -7.93631730      -1.09008924      -1.29148292
H       -7.62679754       0.37615525      -2.30544755
H      -11.52728964       1.66517544      -1.48608593
H      -13.10865463       1.57149773      -3.39514327
H      -12.66216827       0.04000969      -5.29496357
H       -9.06286272      -1.31822098      -3.36024240
H       -4.98650643      -2.59786042      -2.62152852
C      -10.58250343      -1.62900107      -5.52956758
C      -10.37276726      -2.38289773      -6.44722033
Br     -10.03364160      -3.60188486      -7.93098721
C       -4.18794944       4.51167414       5.27386682
O       -4.55430252       4.05742464       3.97432185
C       -3.59286313       3.34730398       3.30422680
C       -4.04990400       2.61605502       2.21209837
C       -3.16267684       1.83867221       1.46788008
C       -1.80059420       1.80059420       1.80059420
C       -1.30590852       2.55486643       2.87982793
C        0.12201709       2.56350415       3.28046012
H        0.72392634       1.73103222       2.93189401
N        0.58209433       3.55526723       4.05843701
N        1.96142516       3.38311971       4.34687992
C        2.64047781       4.22483719       5.19984846
O        3.84479018       4.05357532       5.41122229
C        1.82718993       5.35936902       5.83744703
O        2.62709114       6.09921573       6.76406663
C        2.16045574       7.33309403       7.11719403
C        3.13804965       8.21112454       7.59197844
C        2.80363252       9.50968554       7.97347172
C        1.47779809       9.93187946       7.89785961
C        0.49786857       9.04589807       7.44759395
C        0.82928558       7.74610218       7.05937893
C       -2.23271493       3.31894249       3.62212077
H       -5.07517376       4.96024322       5.73081674
H       -3.41644657       5.28699158       5.22408855
H       -3.87323113       3.67680354       5.90974665
H       -5.10209010       2.64233954       1.94687562
H       -3.54011227       1.26401954       0.62721066
H        2.47320750       2.62952580       3.90943976
H        0.97994311       4.92071436       6.37711821
H        1.48348369       6.01365228       5.02592124
H        4.17152965       7.87605727       7.64367249
H        3.57714336      10.18684964       8.32259388
H        1.21875300      10.94498651       8.19088863
H        0.05008254       7.06953149       6.72187715
H       -1.85062573       3.89794221       4.45732744
C       -0.87327276       9.48156580       7.38623353
C       -2.02160362       9.84643752       7.33484418
Br      -3.87835749      10.43640424       7.25175194
C        4.19134034      -4.50686703       5.27528301
O        4.55392374      -4.05999844       3.97212683
C        3.59266703      -3.34858484       3.30314205
C        4.04808206      -2.62420795       2.20576737
C        3.16100433      -1.84619076       1.46203404
C        1.80059420      -1.80059420       1.80059420
C        1.30737604      -2.54788374       2.88534309
C       -0.11878069      -2.54840936       3.29231852
H       -0.71854566      -1.71482195       2.94272361
N       -0.57977876      -3.53467060       4.07671807
N       -1.95704061      -3.35512629       4.37048879
C       -2.63601344      -4.19004097       5.23018031
O       -3.83860643      -4.01250019       5.44611366
C       -1.82492592      -5.32534321       5.86920883
O       -2.62396753      -6.05752688       6.80263187
C       -2.16122808      -7.29189193       7.15916847
C       -3.14057619      -8.16346517       7.64216436
C       -2.81021242      -9.46179912       8.02793805
C       -1.48660626      -9.89020646       7.94834078
C       -0.50477855      -9.01058447       7.48981753
C       -0.83216666      -7.71105869       7.09730349
C        2.23408254      -3.31277871       3.62691694
H        5.07859327      -4.95734693       5.73029352
H        3.41620397      -5.27896342       5.23235931
H        3.88314277      -3.66780412       5.90883442
H        5.09895357      -2.65633677       1.93601491
H        3.53723981      -1.27694192       0.61716075
H       -2.46742380      -2.60120847       3.93197339
H       -0.97336003      -4.88807356       6.40317594
H       -1.48772257      -5.98472756       5.05908485
H       -4.17232505      -7.82358673       7.69693845
H       -3.58515147     -10.13397168       8.38347996
H       -1.23074391     -10.90314847       8.24471759
H       -0.05148655      -7.03945344       6.75335920
H        1.85314990      -3.88637801       4.46636747
C        0.86413733      -9.45260354       7.42433122
C        2.01060438      -9.82279451       7.36948643
Br       3.86434463     -10.42136199       7.28080705
C       -0.00445707       0.01189536      -1.78238275
H       -0.66409135       0.67374010      -2.43557963
H        0.65740317      -0.63156657      -2.45157240
C       -0.90989263      -0.90692880      -0.91072765
C        0.90977584       0.90977584      -0.90977584
C       -0.00465871       1.77757030       0.00794375
H       -0.66225468       2.44313916      -0.64384735
H        0.64322798       2.43503045       0.67728295
C       -1.78241447       0.00034974      -0.00472694
H       -2.45427497      -0.65498947       0.64260836
H       -2.43311707       0.67328779      -0.65473579
C       -0.91132561       0.90220522       0.91563759
C       -0.01476271      -0.02253852       1.78660255
H       -0.67934791      -0.69751639       2.42135241
H        0.63392994       0.61504881       2.47327442
C        0.01484550      -1.77751727      -0.01636693
H        0.67870853      -2.42144646      -0.68295456
H       -0.62264859      -2.45592969       0.64226336
C        1.78714474       0.01002794       0.00389507
H        2.44202412       0.67113390       0.66197326
H        2.45385902      -0.65136977      -0.64189061
C        0.91606151      -0.90478549       0.90901405
