142
Properties=species:S:1:pos:R:3 pbc="F F F"
C        1.79114753       1.79114753      -1.79114753
C        2.68075559       1.20753137      -2.68791827
C        3.47900118       2.01699536      -3.50518873
C        3.36643747       3.41238582      -3.46769049
C        2.50734952       3.97552498      -2.51082671
C        1.71029781       3.17491001      -1.68758425
N        4.15265608       4.27790340      -4.24591275
C        4.61780165       3.78772028      -5.53304217
N        4.96415670       4.92382678      -6.34471699
C        4.04036718       5.79799060      -6.84366807
O        2.84604280       5.86239350      -6.62726804
C        4.75598869       6.69276117      -7.74673190
C        4.29743957       7.75868466      -8.49494553
C        5.23041412       8.41826058      -9.30162721
C        6.57537923       7.99305463      -9.33644401
Br       7.80264748       8.90683243     -10.44860331
C        7.01682297       6.90789429      -8.57392237
C        6.07515662       6.27790400      -7.78419756
C        6.19285328       5.10924275      -6.91209138
O        7.20243207       4.43946321      -6.81429826
H        2.76700063       0.12666827      -2.75810096
H        4.18215992       1.52766681      -4.17261695
H        2.44066175       5.05650155      -2.40830205
H        1.03707536       3.64327155      -0.97503619
H        3.66158114       5.16247689      -4.36674624
H        3.82469351       3.24376980      -6.06029980
H        5.48822666       3.13540726      -5.40764892
H        3.25640551       8.06419454      -8.46136203
H        4.90681792       9.26150463      -9.90899194
H        8.04573713       6.56272155      -8.59858729
C       -1.79114753      -1.79114753      -1.79114753
C       -1.90065996      -3.15221021      -1.52333507
C       -2.71980593      -3.95704131      -2.32433802
C       -3.47033494      -3.40585351      -3.37032532
C       -3.29309517      -2.04317204      -3.65743400
C       -2.47360705      -1.23328312      -2.86590190
N       -4.29257603      -4.16263616      -4.22126004
C       -4.89273095      -5.36941165      -3.67642151
N       -6.02513727      -5.71324990      -4.49431331
C       -7.17580976      -4.97753700      -4.52867909
O       -7.41958503      -3.90521875      -4.01090056
C       -8.13394897      -5.73626082      -5.32527197
C       -9.43465988      -5.43741022      -5.67899967
C      -10.12279772      -6.38981212      -6.43769208
C       -9.49640089      -7.59793051      -6.81054647
Br     -10.46621958      -8.86331685      -7.82854678
C       -8.17964123      -7.88184422      -6.43715417
C       -7.52333700      -6.92227956      -5.69164162
C       -6.17888395      -6.92040555      -5.11489792
O       -5.42452963      -7.87245797      -5.15920595
H       -1.35185905      -3.60035516      -0.69955565
H       -2.75896161      -5.01966629      -2.10381577
H       -3.81038951      -1.59307694      -4.50199889
H       -2.37838841      -0.17672275      -3.10027194
H       -5.01496703      -3.56124737      -4.61458987
H       -5.26779706      -5.20140340      -2.65956266
H       -4.17022144      -6.19209017      -3.66897123
H       -9.90171189      -4.50625446      -5.37399573
H      -11.15147149      -6.19234215      -6.73350086
H       -7.68829001      -8.81133019      -6.70742576
C       -1.79114753       1.79114753       1.79114753
C       -2.64000958       1.20881576       2.72737988
C       -3.43805432       2.01879518       3.54433576
C       -3.36498979       3.41513914       3.46638483
C       -2.54767151       3.97453720       2.47149250
C       -1.75122335       3.17320390       1.64836482
N       -4.15360553       4.28037809       4.24248862
C       -4.57043281       3.81352713       5.55460417
N       -4.92606204       4.96185987       6.34477856
C       -4.01365115       5.87386125       6.79451345
O       -2.82777825       5.96425500       6.54367108
C       -4.72918269       6.77365942       7.69263964
C       -4.28026990       7.87167699       8.39912288
C       -5.20910180       8.52797815       9.21322197
C       -6.54043677       8.06801350       9.29642760
Br      -7.76215913       8.97885400      10.41707009
C       -6.97211056       6.95083768       8.57569138
C       -6.03495343       6.32479994       7.77750481
C       -6.14375623       5.12984125       6.94058994
O       -7.13677245       4.43081792       6.88860318
H       -2.69455740       0.12837182       2.82884064
H       -4.10934411       1.52936310       4.24373646
H       -2.51353608       5.05368030       2.33824896
H       -1.11047933       3.63964042       0.90526336
H       -3.68400600       5.18078065       4.32601763
H       -3.74881144       3.30573909       6.07421259
H       -5.42561815       3.13492552       5.47073918
H       -3.24931371       8.20392568       8.32872268
H       -4.89268580       9.39598807       9.78864062
H       -7.99010290       6.57903456       8.63790849
C        1.79114753      -1.79114753       1.79114753
C        1.87684729      -3.15743788       1.54192006
C        2.69593358      -3.96253640       2.34271528
C        3.46979578      -3.40732446       3.36939353
C        3.31669214      -2.03813322       3.63887586
C        2.49747748      -1.22783493       2.84747965
N        4.29341476      -4.16370317       4.21935429
C        4.86780343      -5.38702958       3.68373110
N        6.00704856      -5.73561994       4.49003198
C        7.16869995      -5.01657713       4.49674877
O        7.42039034      -3.95563763       3.95967636
C        8.12735608      -5.77769750       5.29042817
C        9.43737050      -5.49298829       5.62071098
C       10.12270135      -6.44430533       6.38329523
C        9.48435069      -7.63747022       6.78305696
Br      10.45057556      -8.90209092       7.80541674
C        8.15821788      -7.90729498       6.43312677
C        7.50501298      -6.94909535       5.68314984
C        6.15234996      -6.93574719       5.12609027
O        5.38494261      -7.87579612       5.19545482
H        1.30945625      -3.60937425       0.73293936
H        2.71633892      -5.02872417       2.13738059
H        3.85291912      -1.58347847       4.46906776
H        2.42113764      -0.16667984       3.06756561
H        5.03022710      -3.56739374       4.59318344
H        5.23020259      -5.23941753       2.65914299
H        4.13335368      -6.19895737       3.69897179
H        9.91337869      -4.57338199       5.29520140
H       11.15840389      -6.25777677       6.66113383
H        7.65742653      -8.82537862       6.72424081
C       -0.00445707       0.01189536      -1.78238275
H       -0.66409135       0.67374010      -2.43557963
H        0.65740317      -0.63156657      -2.45157240
C       -0.90989263      -0.90692880      -0.91072765
C        0.90977584       0.90977584      -0.90977584
C       -0.00465871       1.77757030       0.00794375
H       -0.66225468       2.44313916      -0.64384735
H        0.64322798       2.43503045       0.67728295
C       -1.78241447       0.00034974      -0.00472694
H       -2.45427497      -0.65498947       0.64260836
H       -2.43311707       0.67328779      -0.65473579
C       -0.91132561       0.90220522       0.91563759
C       -0.01476271      -0.02253852       1.78660255
H       -0.67934791      -0.69751639       2.42135241
H        0.63392994       0.61504881       2.47327442
C        0.01484550      -1.77751727      -0.01636693
H        0.67870853      -2.42144646      -0.68295456
H       -0.62264859      -2.45592969       0.64226336
C        1.78714474       0.01002794       0.00389507
H        2.44202412       0.67113390       0.66197326
H        2.45385902      -0.65136977      -0.64189061
C        0.91606151      -0.90478549       0.90901405
