153
Properties=species:S:1:pos:R:3 pbc="F F F"
C        0.00000000       0.00000000       0.00000000
O        4.19675237       8.40603024      -1.22301964
C        4.30166370       7.17793887      -1.21100425
N        3.19311930       6.38444849      -1.04123840
N        3.19926990       5.06135673      -1.35807082
C        2.15540580       4.40782250      -0.95689458
C        1.94025887       2.99654899      -1.32120893
C        2.51807705       2.47186444      -2.48196370
C        2.26124086       1.15008655      -2.84701050
C        1.44389602       0.35233675      -2.04480812
C        0.88210421       0.88210421      -0.88210421
C        1.11606606       2.20725480      -0.51686304
C        5.63372828       6.45836047      -1.33397016
C        6.82234283       7.41376164      -1.32639862
C        7.05890360       8.02101611       0.04962946
O        7.85694347       7.51316482       0.82910170
N        6.27331831       9.13362654       0.28029094
C        6.23633367       9.95475970       1.42118714
C        7.12346620       9.84539676       2.49237191
C        7.00731269      10.69884143       3.59587911
C        6.00459385      11.66544878       3.62630365
Br       5.84177474      12.80743479       5.12320729
C        5.11996483      11.79339260       2.55992178
C        5.23950887      10.94039680       1.45969765
H        2.30700648       6.86198206      -0.90917605
H        1.38469148       4.87703654      -0.31761103
H        3.15026323       3.09238414      -3.11373304
H        2.69583570       0.74334014      -3.75715122
H        1.25231045      -0.67828502      -2.33377970
H        0.67426658       2.61154662       0.38943730
H        5.63053113       5.90543102      -2.28035134
H        5.72480503       5.74114032      -0.50989457
H        6.70074313       8.21427435      -2.06535477
H        7.73348685       6.86932696      -1.60280399
H        5.54840182       9.31384295      -0.41638330
H        7.91889943       9.10632180       2.49760948
H        7.70509222      10.59546032       4.42252217
H        4.33607805      12.54572345       2.57314437
H        4.53816461      11.04967115       0.63527032
O       -3.05776859      -2.03404454      -8.73398912
C       -2.57513092      -2.44039935      -7.67507655
N       -2.42157082      -1.59062729      -6.60660808
N       -2.22454658      -2.05213240      -5.34201846
C       -1.89772123      -1.14038148      -4.48202017
C       -1.76836210      -1.44360975      -3.04604493
C       -2.46899173      -2.51691540      -2.48599807
C       -2.38345627      -2.75998579      -1.11489586
C       -1.58677201      -1.94307182      -0.31119705
C       -0.88210421      -0.88210421      -0.88210421
C       -0.97458670      -0.61760485      -2.24799236
C       -2.08108667      -3.86366449      -7.48130775
C       -2.11379796      -4.67916554      -8.76953960
C       -1.04021704      -4.23603708      -9.75403614
O        0.04772945      -4.79950046      -9.78923558
N       -1.43921230      -3.16188305     -10.52555856
C       -0.72425822      -2.50374184     -11.54190617
C        0.50362177      -2.93857308     -12.04153973
C        1.15296450      -2.21472865     -13.04851085
C        0.57149729      -1.05626844     -13.55896783
Br       1.45666224      -0.07371844     -14.90894603
C       -0.65816507      -0.61714778     -13.07812279
C       -1.30385526      -1.34272424     -12.07362852
H       -2.70478270      -0.62593548      -6.74744641
H       -1.69383554      -0.09748188      -4.78802163
H       -3.09657891      -3.15195950      -3.10784199
H       -2.93926523      -3.58381477      -0.67324707
H       -1.52172409      -2.14194099       0.75585996
H       -0.42318668       0.21065332      -2.68384255
H       -2.72931952      -4.34618835      -6.74080561
H       -1.05968752      -3.83173859      -7.08441381
H       -3.09699593      -4.63143934      -9.25193696
H       -1.92918765      -5.73581384      -8.54061631
H       -2.31546660      -2.71842747     -10.24473400
H        0.98115799      -3.83976627     -11.66900347
H        2.11080400      -2.56698585     -13.42184853
H       -1.12098976       0.28380830     -13.47147566
H       -2.26276405      -0.98495163     -11.70484977
O       -8.26031358       4.52195959       1.04352908
C       -7.42619632       3.74760821       1.51680228
N       -6.24022815       3.51498707       0.86359098
N       -5.16961374       2.95766430       1.49141941
C       -4.20080575       2.61742121       0.70189592
C       -2.91819374       2.11513038       1.22469266
C       -2.49605621       2.46408641       2.51176258
C       -1.25401041       2.02930588       2.97502162
C       -0.44605879       1.23472924       2.16025285
C       -0.88210421       0.88210421       0.88210421
C       -2.11307006       1.32626548       0.40084836
C       -7.65111843       2.97175746       2.80318302
C       -9.06174075       3.14441953       3.35634282
C      -10.09994588       2.41919415       2.51115022
O      -10.45872259       1.28311284       2.79917116
N      -10.52391908       3.17049420       1.43224063
C      -11.47886091       2.83487833       0.45616700
C      -12.27871582       1.69283857       0.50493666
C      -13.19793767       1.42988500      -0.51754767
C      -13.31980492       2.31243844      -1.58850438
Br     -14.55207787       1.94811894      -2.97419457
C      -12.53664307       3.46119488      -1.64440231
C      -11.62084738       3.72089432      -0.62153368
H       -6.10628247       3.99356009      -0.02167797
H       -4.29610636       2.68119861      -0.39796592
H       -3.11982470       3.08902198       3.14753372
H       -0.91543436       2.31175965       3.96913306
H        0.51865395       0.89604936       2.53040971
H       -2.44429562       1.04753367      -0.59545339
H       -6.93283069       3.33760329       3.54587950
H       -7.45017812       1.91061230       2.61504950
H       -9.33355321       4.20276132       3.44405770
H       -9.11410606       2.72363855       4.36787319
H       -9.99563235       4.02679932       1.25619640
H      -12.21201219       0.98768837       1.32791120
H      -13.80911289       0.53293355      -0.46401606
H      -12.62600552       4.15690631      -2.47425470
H      -11.01259943       4.62090045      -0.68093444
O        1.19302101      -4.24842401       8.38435723
C        1.19056036      -4.34455532       7.15549113
N        1.01848917      -3.23155928       6.36875775
N        1.34482729      -3.22589390       5.04797625
C        0.94082178      -2.18024226       4.39905884
C        1.31367440      -1.95231443       2.99202795
C        2.48229660      -2.51800232       2.47160627
C        2.85493976      -2.24902785       1.15437030
C        2.05259623      -1.43171591       0.35672874
C        0.88210421      -0.88210421       0.88210421
C        0.50907750      -1.12823124       2.20287516
C        1.32828530      -5.67047847       6.42729514
C        1.32244618      -6.86597903       7.37407790
C       -0.05615395      -7.11676581       7.96967840
O       -0.82619017      -7.91668389       7.45051287
N       -0.30044147      -6.34090089       9.08619449
C       -1.44742757      -6.31801521       9.89931858
C       -2.51137292      -7.21198606       9.77587791
C       -3.62177461      -7.10990090      10.62214872
C       -3.66635629      -6.11442589      11.59566938
Br      -5.17253769      -5.97057738      12.72796254
C       -2.60732863      -5.22312689      11.73763738
C       -1.50018858      -5.32862915      10.89176744
H        0.87661963      -2.34988366       6.85166130
H        0.29264946      -1.41753253       4.86915706
H        3.11414953      -3.15010731       3.09212356
H        3.77108268      -2.67414594       0.75109844
H        2.34755324      -1.23063433      -0.67038245
H       -0.40325965      -0.69586367       2.60377188
H        2.27855530      -5.65651288       5.88124530
H        0.51004709      -5.76227887       5.70351396
H        2.05475247      -6.74486793       8.18075184
H        1.60931110      -7.77116788       6.82513882
H        0.38967556      -5.61233164       9.27662087
H       -2.50557696      -8.00208328       9.03110543
H       -4.44259992      -7.81281997      10.50781032
H       -2.63159544      -4.44480340      12.49544917
H       -0.68164682      -4.62220394      11.01200832
