174
Properties=species:S:1:pos:R:3 pbc="F F F"
O        5.10665639       9.31593426      -2.13292366
C        5.21156773       8.08784289      -2.12090827
N        4.10302332       7.29435251      -1.95114243
N        4.10917392       5.97126075      -2.26797485
C        3.06530982       5.31772652      -1.86679860
C        2.85016289       3.90645301      -2.23111295
C        3.42798108       3.38176847      -3.39186772
C        3.17114489       2.05999057      -3.75691453
C        2.35380004       1.26224077      -2.95471214
C        1.79200824       1.79200824      -1.79200824
C        2.02597008       3.11715883      -1.42676707
C        6.54363231       7.36826449      -2.24387418
C        7.73224686       8.32366566      -2.23630265
C        7.96880763       8.93092014      -0.86027456
O        8.76684750       8.42306885      -0.08080232
N        7.18322234      10.04353057      -0.62961308
C        7.14623769      10.86466372       0.51128311
C        8.03337022      10.75530078       1.58246788
C        7.91721671      11.60874545       2.68597509
C        6.91449787      12.57535280       2.71639963
Br       6.75167876      13.71733882       4.21330327
C        6.02986885      12.70329662       1.65001776
C        6.14941289      11.85030082       0.54979363
H        3.21691050       7.77188608      -1.81908008
H        2.29459551       5.78694057      -1.22751505
H        4.06016725       4.00228816      -4.02363706
H        3.60573973       1.65324417      -4.66705524
H        2.16221447       0.23161900      -3.24368372
H        1.58417061       3.52145065      -0.52046672
H        6.54043515       6.81533505      -3.19025536
H        6.63470905       6.65104435      -1.41979859
H        7.61064715       9.12417837      -2.97525879
H        8.64339087       7.77923099      -2.51270801
H        6.45830584      10.22374697      -1.32628733
H        8.82880346      10.01622583       1.58770545
H        8.61499625      11.50536434       3.51261814
H        5.24598207      13.45562748       1.66324035
H        5.44806864      11.95957517      -0.27463370
O       -8.61861926      -1.55637534      -6.38051972
C       -7.40991858      -1.76001166      -6.25038865
N       -6.78521380      -1.51081533      -5.05248914
N       -5.56275888      -2.02934420      -4.75630644
C       -5.01931992      -1.54601467      -3.68450036
C       -3.75566736      -2.08245902      -3.14960247
C       -3.37634051      -3.40034540      -3.42493136
C       -2.20615757      -3.91533358      -2.86655884
C       -1.41067693      -3.10954181      -2.05053421
C       -1.79200824      -1.79200824      -1.79200824
C       -2.96905944      -1.27194294      -2.32889359
C       -6.52436505      -2.24703723      -7.38436870
C       -7.25944571      -2.31392098      -8.71884847
C       -7.54828401      -0.92931066      -9.28240766
O       -6.78106231      -0.40680267     -10.08285368
N       -8.70718909      -0.37942807      -8.76974883
C       -9.29146943       0.86345932      -9.07160820
C       -8.84061343       1.71499056     -10.08058025
C       -9.47590112       2.94185959     -10.30594555
C      -10.56599677       3.31585516      -9.52330944
Br     -11.41338041       4.97860073      -9.82093463
C      -11.03354121       2.47145552      -8.52106203
C      -10.39752445       1.24719326      -8.29958889
H       -7.36362876      -1.13832588      -4.30592203
H       -5.47481041      -0.70542879      -3.12881193
H       -3.99714531      -4.03398318      -4.05496398
H       -1.91617709      -4.94442563      -3.06543642
H       -0.49770260      -3.51694160      -1.62287299
H       -3.25853857      -0.24559079      -2.12195861
H       -6.16928948      -3.25118522      -7.12555085
H       -5.65826225      -1.58009891      -7.46719083
H       -8.19489742      -2.87934419      -8.63584270
H       -6.63970351      -2.84164731      -9.45397906
H       -9.12962632      -0.88774472      -7.99096911
H       -7.99712357       1.45117108     -10.71137134
H       -9.10748499       3.59346853     -11.09372599
H      -11.88452403       2.75306971      -7.90691488
H      -10.77179506       0.59934637      -7.50982882
O       -7.93082624       1.36927532       7.25541276
C       -6.78476314       1.69552023       6.94003552
N       -6.27880639       1.36281622       5.70689565
N       -5.18144147       1.97803643       5.18893162
C       -4.70884550       1.42239073       4.11859872
C       -3.60171317       2.02789567       3.35812002
C       -3.37381282       3.40651468       3.42128976
C       -2.35851712       3.97664701       2.65288586
C       -1.56408330       3.16824954       1.83842012
C       -1.79200824       1.79200824       1.79200824
C       -2.81592576       1.21316506       2.54080515
C       -5.84476870       2.43284512       7.87815715
C       -6.41847346       2.59154364       9.28219808
C       -6.44875880       1.27129190      10.03995162
O       -5.52846430       0.95645290      10.78580146
N       -7.57540134       0.52356888       9.75739577
C       -7.94651808      -0.72767689      10.28077712
C       -7.26825566      -1.37558285      11.31353031
C       -7.70079265      -2.62745457      11.76664900
C       -8.81554561      -3.23043810      11.18834354
Br      -9.38929472      -4.92650792      11.79292751
C       -9.50846333      -2.59062086      10.16530525
C       -9.07439513      -1.34070139       9.71622634
H       -6.88613735       0.82693047       5.09480884
H       -5.10939459       0.46640054       3.73325600
H       -3.99525473       4.04118924       4.04964850
H       -2.18859241       5.05024827       2.68719845
H       -0.77176133       3.61965872       1.24609715
H       -2.98668377       0.14123073       2.49817348
H       -5.66177910       3.42784172       7.45640473
H       -4.89290007       1.89077931       7.92187261
H       -7.42487690       3.02549059       9.25971682
H       -5.79280546       3.28349906       9.85902535
H       -8.15204114       0.86830561       8.98799340
H       -6.39924192      -0.93075819      11.78884010
H       -7.15687875      -3.11834688      12.56921058
H      -10.38046945      -3.05159268       9.70949243
H       -9.62379521      -0.85447214       8.91295445
O        7.63111014      -7.57327885       1.35112534
C        7.22909215      -6.46879917       1.72242757
N        5.98859951      -6.01467666       1.34524209
N        5.37118822      -4.98769433       1.98952697
C        4.30764079      -4.54409928       1.39809488
C        3.44851388      -3.52059663       2.01861834
C        3.41926534      -3.37308477       3.40926716
C        2.55979554      -2.43941857       3.98883588
C        1.74619339      -1.64528194       3.17927763
C        1.79200824      -1.79200824       1.79200824
C        2.63295460      -2.73485655       1.20208483
C        8.06529803      -5.52315868       2.56731427
C        9.49009270      -6.02457003       2.77755244
C       10.32218870      -5.93195748       1.50585615
O       11.02784516      -4.95339324       1.28948027
N       10.15114523      -7.02567192       0.67954883
C       10.76631870      -7.29021713      -0.55691753
C       11.79144859      -6.51642527      -1.10167074
C       12.34034376      -6.84613944      -2.34649613
C       11.86561622      -7.95356905      -3.04573422
Br      12.59925276      -8.38858324      -4.73212169
C       10.85151245      -8.74092477      -2.50928950
C       10.30666182      -8.40933698      -1.26607871
H        5.44576678      -6.62240429       0.73970559
H        4.00219691      -4.90750252       0.39935170
H        4.04684727      -3.99493166       4.04431354
H        2.52264437      -2.33291723       5.07047754
H        1.08240959      -0.91663689       3.63847072
H        2.66177079      -2.84276229       0.12155489
H        7.57733776      -5.42484512       3.54384268
H        8.08226395      -4.53936963       2.08391841
H        9.50373117      -7.05497286       3.15138028
H        9.98780000      -5.40999349       3.53753638
H        9.39957705      -7.66491014       0.94385295
H       12.18736506      -5.65020416      -0.58024539
H       13.13524849      -6.22880722      -2.75631327
H       10.47612517      -9.60804406      -3.04580003
H        9.51164565      -9.03189548      -0.86126361
C       -0.00445707       0.01189536      -1.78238275
H       -0.66409135       0.67374010      -2.43557963
H        0.65740317      -0.63156657      -2.45157240
C       -0.90989263      -0.90692880      -0.91072765
C        0.90977584       0.90977584      -0.90977584
C       -0.00465871       1.77757030       0.00794375
H       -0.66225468       2.44313916      -0.64384735
H        0.64322798       2.43503045       0.67728295
C       -1.78241447       0.00034974      -0.00472694
H       -2.45427497      -0.65498947       0.64260836
H       -2.43311707       0.67328779      -0.65473579
C       -0.91132561       0.90220522       0.91563759
C       -0.01476271      -0.02253852       1.78660255
H       -0.67934791      -0.69751639       2.42135241
H        0.63392994       0.61504881       2.47327442
C        0.01484550      -1.77751727      -0.01636693
H        0.67870853      -2.42144646      -0.68295456
H       -0.62264859      -2.45592969       0.64226336
C        1.78714474       0.01002794       0.00389507
H        2.44202412       0.67113390       0.66197326
H        2.45385902      -0.65136977      -0.64189061
C        0.91606151      -0.90478549       0.90901405
