173
Properties=species:S:1:pos:R:3 pbc="F F F"
C        0.00000000       0.00000000       0.00000000
O        6.37288473       6.24527172      -6.13044338
C        6.77797868       6.37633312      -4.97578205
C        6.15727651       5.66535180      -3.79287216
C        4.98070651       4.78909801      -4.20737410
C        4.33859140       4.13070223      -3.00106142
O        4.70229653       4.38352763      -1.85637906
N        3.33956655       3.24175214      -3.36213209
C        2.52612448       2.48440447      -2.49227358
C        2.49012705       2.66745627      -1.10692138
C        1.67146951       1.86857359      -0.30156533
C        0.88160087       0.88160087      -0.88160087
C        0.89273064       0.69584506      -2.26161449
C        1.70872047       1.50102547      -3.06434616
N        7.84639883       7.19878015      -4.69617950
N        8.31682427       7.36505718      -3.43218248
C        9.32621977       8.16220369      -3.22820739
C       10.04440765       8.91732012      -4.32768268
C        9.80411325       8.34505945      -1.82213269
C       10.36661851       9.55380425      -1.39319265
C       10.80340419       9.69492697      -0.07197778
C       10.67061273       8.63223648       0.82073220
C       10.09766981       7.43088807       0.40872651
C        9.65983538       7.28919283      -0.91109597
H        5.82286168       6.42137981      -3.07250410
H        6.92561911       5.04733009      -3.31288602
H        5.31655004       4.01017502      -4.90211803
H        4.21716432       5.39102410      -4.71459558
H        3.22336124       3.06597524      -4.35279445
H        3.08359957       3.43287124      -0.61694109
H        1.66342475       2.03151593       0.77289560
H        0.27785769      -0.07441871      -2.71999939
H        1.70517745       1.33276851      -4.13801955
H        8.25263949       7.69093160      -5.48215633
H       10.28181952       8.23871602      -5.15223851
H       10.99226005       9.34056408      -3.98765371
H        9.40106991       9.72321205      -4.69179903
H       10.45497256      10.40501782      -2.06231205
H       11.23752435      10.63764829       0.25213081
H        9.98247090       6.60215483       1.10290143
H        9.20797594       6.34916617      -1.22280100
C       11.12341127       8.78060950       2.17961370
C       11.50263004       8.90487191       3.31767696
Br      12.11579473       9.10579370       5.15782899
O       -6.20647579      -6.15566006      -6.38646398
C       -6.07352917      -5.08253038      -6.97403430
C       -5.26716334      -3.92775493      -6.42058221
C       -4.65967070      -4.25602207      -5.06148586
C       -3.90359449      -3.06697841      -4.49978215
O       -3.89704513      -1.97840235      -5.06675575
N       -3.24825358      -3.37596915      -3.31922806
C       -2.47961742      -2.49932100      -2.52386412
C       -2.42225515      -1.11720630      -2.72504325
C       -1.62516441      -0.30858214      -1.90786188
C       -0.88160087      -0.88160087      -0.88160087
C       -0.93907105      -2.25459232      -0.65652681
C       -1.74223081      -3.05926819      -1.47259310
N       -6.66804739      -4.87474028      -8.19857081
N       -6.54073674      -3.70132083      -8.87200635
C       -7.13248071      -3.56063431     -10.02351581
C       -7.95292688      -4.64461395     -10.69186960
C       -6.99550393      -2.24773362     -10.72806785
C       -8.01481551      -1.74957170     -11.54922820
C       -7.85802692      -0.51830375     -12.19397827
C       -6.68769611       0.21718333     -12.01160423
C       -5.67418124      -0.26158416     -11.18406597
C       -5.83032501      -1.49139852     -10.53840065
H       -5.92734333      -3.05667153      -6.33273073
H       -4.46859882      -3.68520911      -7.13202729
H       -3.97253240      -5.10578293      -5.15052775
H       -5.44659148      -4.52829507      -4.34789745
H       -3.26652185      -4.34625414      -3.02935495
H       -2.99473556      -0.63040705      -3.50826930
H       -1.59815990       0.76300573      -2.08689091
H       -0.35953287      -2.70762279       0.14371729
H       -1.76563348      -4.12885838      -1.28147366
H       -7.22396812      -5.63803543      -8.56372388
H       -7.40056001      -5.58884844     -10.68336561
H       -8.16604234      -4.41592291     -11.73851258
H       -8.89581891      -4.76836194     -10.15190014
H       -8.94691771      -2.29083424     -11.68455048
H       -8.65549638      -0.13913524     -12.82841020
H       -4.76357078       0.31205854     -11.03021207
H       -5.03593960      -1.85500802      -9.88899549
C       -6.52905428       1.48341058     -12.67876337
C       -6.39619174       2.54387590     -13.23750915
Br      -6.18136427       4.25855864     -14.14095381
O       -6.19610161       6.16414708       6.38835114
C       -5.98731699       5.12652168       7.01625519
C       -5.15347438       3.98424701       6.47777909
C       -4.62299686       4.27557144       5.07861034
C       -3.83811082       3.09647803       4.53576621
O       -3.75565811       2.03685564       5.14968947
N       -3.25104319       3.37900907       3.31339852
C       -2.47856638       2.50134053       2.52289562
C       -2.34801156       1.13401569       2.78247745
C       -1.55127760       0.32447991       1.96585092
C       -0.88160087       0.88160087       0.88160087
C       -1.01290164       2.23870389       0.59858466
C       -1.81555777       3.04397763       1.41455669
N       -6.51644399       4.94973535       8.27517914
N       -6.30479321       3.81577613       8.99349458
C       -6.83752559       3.70267685      10.17642841
C       -7.67701046       4.77902687      10.83337311
C       -6.60834911       2.43140502      10.93155127
C       -7.56581238       1.92716624      11.82063679
C       -7.32332727       0.73545433      12.51152735
C       -6.12929073       0.04507068      12.30775560
C       -5.17699277       0.52940040      11.41343820
C       -5.41880743       1.71964780      10.72166895
H       -5.77562858       3.08150908       6.45960792
H       -4.31362029       3.81086351       7.16135142
H       -3.97289443       5.15828593       5.09766273
H       -5.45271105       4.47903864       4.39103432
H       -3.32735356       4.33296832       2.98180905
H       -2.86178819       0.65922942       3.61239429
H       -1.46646331      -0.73534491       2.19092668
H       -0.49126654       2.67931300      -0.24714117
H       -1.89722258       4.10140615       1.17733678
H       -7.09050896       5.70371648       8.63150199
H       -7.17013892       5.74548032      10.75715482
H       -7.83246789       4.59006798      11.89794197
H       -8.64773124       4.83542302      10.33292672
H       -8.51516380       2.43213653      11.97500210
H       -8.07325787       0.35113649      13.19864747
H       -4.24840511      -0.00970198      11.24302118
H       -4.67189611       2.08760447      10.02044254
C       -5.88233128      -1.18040198      13.02247777
C       -5.67550274      -2.20673534      13.62105758
Br      -5.34107849      -3.86622957      14.58891052
O        6.36224715      -6.26514690       6.12120579
C        6.65599986      -6.52039733       4.95369667
C        5.99449885      -5.85412233       3.76687930
C        4.92987549      -4.85104629       4.19625685
C        4.24098768      -4.23701523       2.99235214
O        4.48492872      -4.60890313       1.84837138
N        3.34916083      -3.24063996       3.35364999
C        2.52651407      -2.48734030       2.48894817
C        2.35841714      -2.77476126       1.13132631
C        1.53934129      -1.97470222       0.32756492
C        0.88160087      -0.88160087       0.88160087
C        1.02475483      -0.58979499       2.23564036
C        1.84046341      -1.39608806       3.03754062
N        7.62890995      -7.45023654       4.66221200
N        7.97548093      -7.75460590       3.38397710
C        8.89818870      -8.64835576       3.17008639
C        9.64595217      -9.37331593       4.27014234
C        9.23877707      -8.98097284       1.75155549
C        9.66615561     -10.26313958       1.38432022
C        9.97641321     -10.54414703       0.04974871
C        9.85184406      -9.54731800      -0.91704505
C        9.41207569      -8.27293729      -0.56518162
C        9.10070271      -7.99138109       0.76804038
H        5.54168089      -6.63309046       3.14197424
H        6.76527322      -5.34334257       3.17721943
H        5.38372612      -4.05146877       4.79364821
H        4.16745125      -5.34411119       4.81122157
H        3.33189436      -2.97844185       4.33179473
H        2.84613065      -3.62400505       0.66327621
H        1.42706338      -2.22014347      -0.72516176
H        0.51347434       0.26360923       2.67357327
H        1.94158128      -1.14444285       4.08994138
H        8.06075197      -7.91202398       5.45295149
H       10.00521961      -8.65481736       5.01273709
H       10.52527238      -9.90110858       3.89409687
H        8.97473751     -10.09043714       4.75090634
H        9.74413225     -11.06366775       2.11450243
H       10.30606472     -11.54292264      -0.22594554
H        9.30353754      -7.49441737      -1.31623060
H        8.75216351      -6.99474417       1.03303544
C       10.17423026      -9.83984525      -2.28966844
C       10.44422869     -10.08483681      -3.43924052
Br      10.88079333     -10.48096746      -5.29800135
