186
Properties=species:S:1:pos:R:3 pbc="F F F"
O        7.28278875       7.15517574      -7.04034741
C        7.68788271       7.28623715      -5.88568607
C        7.06718054       6.57525582      -4.70277619
C        5.89061054       5.69900204      -5.11727813
C        5.24849543       5.04060626      -3.91096544
O        5.61220056       5.29343165      -2.76628308
N        4.24947057       4.15165616      -4.27203612
C        3.43602851       3.39430850      -3.40217761
C        3.40003108       3.57736030      -2.01682540
C        2.58137354       2.77847761      -1.21146935
C        1.79150490       1.79150490      -1.79150490
C        1.80263466       1.60574908      -3.17151851
C        2.61862449       2.41092949      -3.97425018
N        8.75630285       8.10868418      -5.60608353
N        9.22672829       8.27496120      -4.34208650
C       10.23612379       9.07210771      -4.13811141
C       10.95431167       9.82722414      -5.23758670
C       10.71401728       9.25496348      -2.73203672
C       11.27652254      10.46370827      -2.30309667
C       11.71330822      10.60483100      -0.98188180
C       11.58051675       9.54214051      -0.08917182
Br      12.17485429       9.73689302       1.69447855
C       11.00757384       8.34079209      -0.50117751
C       10.56973940       8.19909686      -1.82099999
H        6.73276571       7.33128384      -3.98240812
H        7.83552313       5.95723412      -4.22279005
H        6.22645406       4.92007905      -5.81202206
H        5.12706835       6.30092813      -5.62449960
H        4.13326526       3.97587926      -5.26269848
H        3.99350360       4.34277526      -1.52684511
H        2.57332878       2.94141996      -0.13700842
H        1.18776172       0.83548531      -3.62990342
H        2.61508148       2.24267254      -5.04792357
H        9.16254352       8.60083563      -6.39206036
H       11.19172355       9.14862005      -6.06214254
H       11.90216407      10.25046810      -4.89755773
H       10.31097394      10.63311607      -5.60170306
H       11.36487658      11.31492184      -2.97221608
H       12.14742837      11.54755232      -0.65777321
H       10.89237493       7.51205886       0.19299741
H       10.11787997       7.25907019      -2.13270503
O       -7.01990839      -7.21886566      -7.23953786
C       -5.95819519      -7.06029184      -7.84131890
C       -4.81227385      -6.23405070      -7.29888800
C       -5.14048898      -5.62667483      -5.93972690
C       -4.00179133      -4.75758416      -5.44069164
O       -3.01024076      -4.53323634      -6.12843820
N       -4.22892754      -4.28598659      -4.15824872
C       -3.38951587      -3.43376366      -3.40923507
C       -2.27173615      -2.78303416      -3.93944646
C       -1.47274290      -1.96432437      -3.13425322
C       -1.79150490      -1.79150490      -1.79150490
C       -2.91046898      -2.41920426      -1.25022902
C       -3.71051101      -3.23276585      -2.06052731
N       -5.75517292      -7.64410744      -9.07179019
N       -4.59476714      -7.48758431      -9.76142455
C       -4.46347916      -8.05823087     -10.92463289
C       -5.52789833      -8.92258549     -11.56863869
C       -3.18442692      -7.84527260     -11.67131796
C       -3.15122134      -7.82087117     -13.07123498
C       -1.94018447      -7.61866874     -13.74116780
C       -0.76596957      -7.43317435     -13.01268516
Br       0.86850383      -7.16307724     -13.92269535
C       -0.79041431      -7.43950273     -11.61962641
C       -2.00029946      -7.64038268     -10.94915411
H       -4.59018073      -5.43740658      -8.01887035
H       -3.92779297      -6.87647307      -7.21128126
H       -5.33053942      -6.42042473      -5.20759102
H       -6.04067642      -5.00408158      -6.00773808
H       -5.04938891      -4.64057216      -3.68188193
H       -1.99498364      -2.88401111      -4.98412923
H       -0.60887429      -1.47104105      -3.57184182
H       -3.16376040      -2.28803130      -0.20135875
H       -4.57474399      -3.71714511      -1.61378849
H       -6.52639723      -8.18222916      -9.44681311
H       -5.89925982      -9.65617809     -10.84704822
H       -5.14219507      -9.48815488     -12.41983995
H       -6.35402480      -8.28880997     -11.90295829
H       -4.05689440      -7.93496105     -13.66015905
H       -1.92462114      -7.59993371     -14.82819906
H        0.12030984      -7.28555749     -11.04618873
H       -2.01114145      -7.63787387      -9.86063987
O       -7.27206619       7.17519312       7.03105259
C       -7.56497925       7.43130542       5.86352126
C       -6.90317104       6.76534025       4.67670126
C       -5.83939306       5.76138303       5.10611461
C       -5.15015717       5.14765570       3.90225425
O       -5.39320366       5.52036215       2.75834949
N       -4.25913151       4.15054138       4.26348997
C       -3.43641903       3.39726649       3.39882909
C       -3.26735144       3.68538887       2.04147646
C       -2.44827341       2.88532080       1.23772629
C       -1.79150490       1.79150490       1.79150490
C       -1.93562999       1.49898499       3.14528728
C       -2.75133598       2.30528620       3.94718198
N       -8.53716857       8.36189038       5.57201161
N       -8.88280557       8.66721806       4.29375237
C       -9.80485965       9.56163830       4.07984497
C      -10.55284448      10.28639070       5.17988734
C      -10.14441458       9.89529291       2.66130998
C      -10.57082003      11.17792802       2.29457944
C      -10.88012420      11.45990559       0.95999123
C      -10.75557247      10.46357361      -0.00731699
Br     -11.17744257      10.84885333      -1.80902714
C      -10.31676353       9.18872629       0.34405362
C      -10.00634351       8.90620009       1.67729264
H       -6.44952502       7.54440945       4.05252319
H       -7.67389842       6.25536332       4.08628556
H       -6.29406767       4.96172128       5.70276621
H       -5.07704120       6.25363511       5.72181977
H       -4.24259694       3.88775625       5.24148981
H       -3.75428768       4.53519625       1.57364005
H       -2.33522952       3.13131660       0.18521104
H       -1.42511146       0.64502104       3.58301795
H       -2.85322331       2.05308005       4.99937423
H       -8.96920473       8.82346613       6.36276865
H      -10.91297380       9.56766642       5.92184592
H      -11.43163117      10.81492388       4.80363485
H       -9.88149082      11.00283199       5.66147026
H      -10.64875541      11.97807126       3.02518783
H      -11.20902382      12.45903800       0.68469208
H      -10.20824136       8.41058555      -0.40739052
H       -9.65854864       7.90920154       1.94190501
O        7.02338537      -7.25619439       7.19873214
C        5.86635570      -7.40136066       7.59208957
C        4.68425016      -6.68558896       6.97537343
C        5.10522416      -5.77079036       5.83087619
C        3.91422404      -5.02119945       5.26464364
O        2.79733399      -5.10850568       5.76607563
N        4.25220520      -4.26976066       4.15119699
C        3.39514409      -3.43619713       3.40117339
C        2.09676770      -3.10125795       3.79619112
C        1.29483537      -2.28198501       2.99450011
C        1.79150490      -1.79150490       1.79150490
C        3.08822857      -2.10178855       1.38988513
C        3.88928497      -2.91694619       2.19757301
N        5.58292241      -8.24662197       8.64152618
N        4.31640333      -8.42791928       9.09945339
C        4.11076686      -9.23496026      10.10061580
C        5.20495407     -10.02157022      10.79259822
C        2.70884933      -9.39305769      10.59911045
C        2.43853434      -9.65709913      11.94769401
C        1.11722632      -9.79877662      12.38401808
C        0.06792347      -9.66868668      11.47521893
Br      -1.71578493      -9.86378478      12.06926891
C        0.32499786      -9.39004319      10.13450239
C        1.64501771      -9.24717253       9.69764601
H        4.18936304      -6.09874829       7.75834633
H        3.97458489      -7.43543853       6.60552388
H        5.57062624      -6.35772989       5.03019903
H        5.83731104      -5.03351369       6.18167135
H        5.19496547      -4.37926825       3.79760928
H        1.67585464      -3.45533786       4.73193148
H        0.28869688      -2.03802800       3.32503228
H        3.48111090      -1.72163027       0.45040927
H        4.89550637      -3.15040460       1.85976662
H        6.37322233      -8.71302689       9.06919028
H        5.83147999     -10.52234812      10.04865802
H        4.80473942     -10.80325450      11.44219599
H        5.81891369      -9.33950190      11.38737747
H        3.23751521      -9.73491298      12.67958630
H        0.91723545     -10.00230553      13.43321292
H       -0.48946989      -9.27772295       9.42318332
H        1.83641844      -9.02362715       8.64960960
C       -0.00445707       0.01189536      -1.78238275
H       -0.66409135       0.67374010      -2.43557963
H        0.65740317      -0.63156657      -2.45157240
C       -0.90989263      -0.90692880      -0.91072765
C        0.90977584       0.90977584      -0.90977584
C       -0.00465871       1.77757030       0.00794375
H       -0.66225468       2.44313916      -0.64384735
H        0.64322798       2.43503045       0.67728295
C       -1.78241447       0.00034974      -0.00472694
H       -2.45427497      -0.65498947       0.64260836
H       -2.43311707       0.67328779      -0.65473579
C       -0.91132561       0.90220522       0.91563759
C       -0.01476271      -0.02253852       1.78660255
H       -0.67934791      -0.69751639       2.42135241
H        0.63392994       0.61504881       2.47327442
C        0.01484550      -1.77751727      -0.01636693
H        0.67870853      -2.42144646      -0.68295456
H       -0.62264859      -2.45592969       0.64226336
C        1.78714474       0.01002794       0.00389507
H        2.44202412       0.67113390       0.66197326
H        2.45385902      -0.65136977      -0.64189061
C        0.91606151      -0.90478549       0.90901405
