165
Properties=species:S:1:pos:R:3 pbc="F F F"
C        0.00000000       0.00000000       0.00000000
C        6.08577229       3.27586008      -2.33494888
C        5.63875211       3.64129893      -3.74341105
C        4.38680400       2.88111879      -4.19703092
H        4.57144320       1.80267624      -4.13388863
N        3.20873205       3.28679659      -3.40763289
C        2.50696248       2.49718801      -2.52093681
C        1.20953785       2.89371642      -2.16499044
C        0.39611888       2.09469056      -1.35281724
C        0.88089289       0.88089289      -0.88089289
C        2.16335072       0.46453824      -1.21643162
C        2.96276516       1.26572896      -2.04279122
C        4.08840186       3.14587732      -5.69495076
O        4.92745322       3.56564827      -6.48981616
N        2.78030692       2.79381984      -6.01411001
N        2.29729968       2.95870296      -7.27366784
C        1.02608738       2.75226949      -7.40821392
C        0.35501576       2.89135699      -8.71489927
C       -1.03965347       2.79973656      -8.76920307
C       -1.69511063       2.93387492      -9.99472761
C       -0.95737499       3.15220910     -11.16003446
C        0.43354560       3.23843312     -11.09653542
C        1.09774550       3.11281744      -9.87845067
H        7.02547404       3.78408219      -2.09611891
H        6.25401238       2.19793766      -2.24326324
H        5.34491089       3.57734079      -1.58896255
H        6.46718196       3.42337861      -4.42829838
H        5.46736288       4.72388711      -3.79805440
H        2.98561524       4.27831445      -3.43295870
H        0.80526178       3.83270757      -2.53669023
H       -0.60803148       2.42748347      -1.10621497
H        2.55626106      -0.47883584      -0.84715650
H        3.96128560       0.90789386      -2.27441129
H        2.16012610       2.55751892      -5.24169917
H        0.38939499       2.47240572      -6.54947592
H       -1.62502045       2.63216041      -7.86874128
H       -2.77956544       2.87013183     -10.04378969
H       -1.47484909       3.25369996     -12.11117435
H        2.18235091       3.18276801      -9.83073575
C        1.18848827       3.45795480     -12.30296477
C        1.82075276       3.64180420     -13.31334936
Br       2.84307096       3.93907314     -14.94705579
C       -1.80385133      -4.22770731      -5.66502261
C       -3.04727369      -4.88893491      -5.08725349
C       -3.16029051      -4.73919266      -3.56547053
H       -2.26406045      -5.15383230      -3.09011533
N       -3.38325473      -3.33048777      -3.18941902
C       -2.50792262      -2.52051240      -2.49665228
C       -3.01751325      -1.36580225      -1.88492922
C       -2.21548528      -0.54859383      -1.07954757
C       -0.88089289      -0.88089289      -0.88089289
C       -0.34954396      -2.01819748      -1.47657914
C       -1.16608409      -2.83698693      -2.26821433
C       -4.33297929      -5.58683901      -3.00941165
O       -4.83557053      -6.53043151      -3.61691561
N       -4.68775302      -5.17095230      -1.72953145
N       -5.70704858      -5.76643988      -1.05618201
C       -6.04927973      -5.18778768       0.05049662
C       -7.13869205      -5.71627772       0.89369774
C       -7.55929371      -4.96816846       1.99817601
C       -8.59230734      -5.44733001       2.80614546
C       -9.19623377      -6.67178520       2.51315040
C       -8.76746726      -7.41265133       1.41160445
C       -7.74226888      -6.94133956       0.59459482
H       -1.73247900      -4.43580735      -6.73738879
H       -0.89662749      -4.61141424      -5.18717155
H       -1.83197843      -3.14180124      -5.53743456
H       -3.01651572      -5.95361323      -5.34873000
H       -3.93724953      -4.47441788      -5.57763699
H       -4.20551347      -2.89372113      -3.59765379
H       -4.06341335      -1.09647358      -2.01477264
H       -2.64601483       0.33218701      -0.61183914
H        0.69445862      -2.28408799      -1.33495234
H       -0.71005973      -3.71156653      -2.72196448
H       -4.26256613      -4.31234734      -1.38443073
H       -5.54658174      -4.26981948       0.40512459
H       -7.09847517      -4.01265191       2.23524585
H       -8.92892029      -4.86823057       3.66279479
H       -9.99889815      -7.03937783       3.14825077
H       -7.41099456      -7.51949287      -0.26536725
C       -9.39076852      -8.67727079       1.11863146
C       -9.91278332      -9.73638958       0.87326657
Br     -10.75683710     -11.44889510       0.47653231
C       -6.15211161       2.75197556       2.79249409
C       -5.58235972       3.38891337       4.05218900
C       -4.17789064       2.88374568       4.40331738
H       -4.19917576       1.79371594       4.51511637
N       -3.19417019       3.31609317       3.39289817
C       -2.50356388       2.49957234       2.52195107
C       -1.34339867       3.00647536       1.91837069
C       -0.53205307       2.20733591       1.10423770
C       -0.88089289       0.88089289       0.88089289
C       -2.02606557       0.35342045       1.46483456
C       -2.82213747       1.15876799       2.29037988
C       -3.72589246       3.41611970       5.78721778
O       -4.50560576       3.83797020       6.63934169
N       -2.34807163       3.29696338       5.94320177
N       -1.73187910       3.71928288       7.07850849
C       -0.43761914       3.70894516       7.04000649
C        0.37296520       4.13861624       8.19562099
C        1.75939293       4.24472826       8.04395084
C        2.54456603       4.65482377       9.12323416
C        1.94511780       4.95081893      10.34916745
C        0.56196368       4.83849778      10.49198004
C       -0.23209289       4.43672681       9.42019391
H       -7.18293254       3.08594509       2.63679751
H       -6.16126269       1.66021386       2.87373674
H       -5.57420836       3.03038780       1.90661807
H       -6.26717528       3.17100290       4.88068077
H       -5.57582837       4.47989744       3.93357858
H       -3.12677652       4.32033626       3.24977561
H       -1.04401689       4.03756874       2.09307394
H        0.36571242       2.62949738       0.66188200
H       -2.31331646      -0.68005821       1.29132346
H       -3.71250711       0.71052314       2.72056050
H       -1.80809884       3.02876162       5.12248374
H        0.11369944       3.38688977       6.13808631
H        2.23739799       4.01917225       7.09410698
H        3.62236346       4.74573593       9.01098361
H        2.56348529       5.26771601      11.18579450
H       -1.31082313       4.35207900       9.53295255
C       -0.04898554       5.13974582      11.76067648
C       -0.56065552       5.39204106      12.82320975
Br      -1.38798259       5.79998111      14.54123619
C        1.83309490      -5.71131085       4.15217551
C        3.34752351      -5.56250439       4.11343419
C        3.83571254      -4.63456334       2.99467782
H        3.47396651      -5.00521703       2.02882454
N        3.41676788      -3.24246535       3.24392830
C        2.51781926      -2.51231720       2.49495083
C        2.53141255      -1.11550396       2.62132821
C        1.72272211      -0.29957660       1.82132797
C        0.88089289      -0.88089289       0.88089289
C        0.84597097      -2.26234940       0.73600022
C        1.67140026      -3.06805482       1.53183026
C        5.38118309      -4.66856269       2.87948416
O        6.07499442      -5.57873965       3.32918358
N        5.85326839      -3.57436928       2.16059910
N        7.18398070      -3.39394633       1.95174344
C        7.50948791      -2.26079619       1.41628668
C        8.91536556      -1.91851271       1.12739376
C        9.21713870      -0.62594653       0.68620093
C       10.54170232      -0.27945743       0.41233215
C       11.55733875      -1.22412831       0.57340153
C       11.24624090      -2.51192629       1.01034695
C        9.92912901      -2.86688016       1.29300444
H        1.54779279      -6.44505793       4.91282443
H        1.44759040      -6.05926405       3.18835883
H        1.34416846      -4.76530379       4.40174198
H        3.78191091      -6.56023697       3.97671107
H        3.69963172      -5.20152326       5.08814942
H        3.72872805      -2.84297324       4.12518710
H        3.19465632      -0.63965923       3.34034403
H        1.76704132       0.77944545       1.93807109
H        0.18617210      -2.72886006       0.00954955
H        1.60779106      -4.14293992       1.39285977
H        5.18316154      -2.84159661       1.93458604
H        6.74993367      -1.49960289       1.16174007
H        8.43560363       0.11876998       0.55904758
H       10.78468972       0.72538724       0.07505359
H       12.58641451      -0.94740356       0.35620714
H        9.68892025      -3.87098549       1.63594894
C       12.29783902      -3.48282963       1.16873920
C       13.17855243      -4.29596118       1.30139271
Br      14.60259154      -5.61072613       1.51588221
