178
Properties=species:S:1:pos:R:3 pbc="F F F"
C        6.99567632       4.18576411      -3.24485291
C        6.54865614       4.55120295      -4.65331507
C        5.29670802       3.79102281      -5.10693494
H        5.48134723       2.71258026      -5.04379266
N        4.11863607       4.19670062      -4.31753691
C        3.41686650       3.40709203      -3.43084084
C        2.11944188       3.80362045      -3.07489447
C        1.30602291       3.00459458      -2.26272127
C        1.79079691       1.79079691      -1.79079691
C        3.07325475       1.37444227      -2.12633564
C        3.87266918       2.17563299      -2.95269524
C        4.99830589       4.05578134      -6.60485479
O        5.83735724       4.47555230      -7.39972018
N        3.69021095       3.70372386      -6.92401404
N        3.20720370       3.86860698      -8.18357186
C        1.93599140       3.66217351      -8.31811794
C        1.26491979       3.80126102      -9.62480330
C       -0.12974944       3.70964059      -9.67910710
C       -0.78520660       3.84377894     -10.90463163
C       -0.04747096       4.06211313     -12.06993849
C        1.34344963       4.14833714     -12.00643944
Br       2.33456527       4.43653302     -13.59028289
C        2.00764953       4.02272146     -10.78835469
H        7.93537807       4.69398622      -3.00602293
H        7.16391641       3.10784168      -3.15316726
H        6.25481491       4.48724482      -2.49886657
H        7.37708599       4.33328263      -5.33820241
H        6.37726691       5.63379113      -4.70795843
H        3.89551927       5.18821847      -4.34286272
H        1.71516580       4.74261159      -3.44659426
H        0.30187255       3.33738749      -2.01611900
H        3.46616508       0.43106818      -1.75706052
H        4.87118963       1.81779788      -3.18431531
H        3.07003013       3.46742295      -6.15160319
H        1.29929902       3.38230974      -7.45937995
H       -0.71511643       3.54206443      -8.77864530
H       -1.86966142       3.78003585     -10.95369371
H       -0.56494507       4.16360398     -13.02107837
H        3.09225494       4.09267204     -10.74063978
C       -4.04490306      -3.35476132      -7.02662895
C       -4.48085509      -4.73033513      -6.54198394
C       -3.78585799      -5.16321007      -5.24559771
H       -2.69966051      -5.14740305      -5.39065659
N       -4.20427236      -4.31434719      -4.11425405
C       -3.40764596      -3.43118428      -3.41596913
C       -3.83810868      -3.01087872      -2.14896939
C       -3.03911023      -2.19816840      -1.33606013
C       -1.79079691      -1.79079691      -1.79079691
C       -1.34030476      -2.19088340      -3.04284450
C       -2.14253389      -3.01713816      -3.84132536
C       -4.11920291      -6.63759902      -4.90214008
O       -4.53787017      -7.44812260      -5.72663695
N       -3.82863494      -6.91885811      -3.57045579
N       -4.05990575      -8.15181099      -3.04766580
C       -3.90624834      -8.24473114      -1.76530338
C       -4.12057613      -9.51843773      -1.05197024
C       -4.08305839      -9.52219127       0.34625141
C       -4.28872793     -10.71564114       1.04116510
C       -4.52432774     -11.89965121       0.33939830
C       -4.55624102     -11.88677155      -1.05521364
Br      -4.86834705     -13.49590629      -1.99712783
C       -4.35904414     -10.70077153      -1.75891002
H       -4.50821620      -3.13367555      -7.99349547
H       -2.95873219      -3.30979913      -7.15639403
H       -4.34468589      -2.57001377      -6.32622664
H       -4.25889499      -5.45434668      -7.33532935
H       -5.57037109      -4.73801314      -6.41063224
H       -5.20364040      -4.29413871      -3.92882135
H       -4.80514495      -3.33150079      -1.76772591
H       -3.39924545      -1.90075014      -0.35538345
H       -0.36940826      -1.87240643      -3.41247909
H       -1.75702311      -3.30030969      -4.81597003
H       -3.58590058      -6.13238840      -2.97076729
H       -3.61729288      -7.37304087      -1.15065495
H       -3.90270809      -8.60664368       0.90375846
H       -4.26730688     -10.72510805       2.12834679
H       -4.68166445     -12.82565619       0.88758335
H       -4.38671018     -10.69242478      -2.84643179
C       -2.62336933       6.37717440       5.42574960
C       -4.13370894       6.38338367       5.23608155
C       -4.59020073       5.61307689       3.99138815
H       -4.10252448       6.03158151       3.10361415
N       -4.32524462       4.16952251       4.13810647
C       -3.42595149       3.42433235       3.40451553
C       -3.57787160       2.03007516       3.39001003
C       -2.77069531       1.21342970       2.58921374
C       -1.79079691       1.79079691       1.79079691
C       -1.61728881       3.16938989       1.78735395
C       -2.44156087       3.97794149       2.58149505
C       -6.10724153       5.81041310       3.74128739
O       -6.75734059       6.74064396       4.21464518
N       -6.60241577       4.83770999       2.87782309
N       -7.91667676       4.80970454       2.53300125
C       -8.28829696       3.76732512       1.86066077
C       -9.68369927       3.59358820       1.41369663
C      -10.05551806       2.38237967       0.82110051
C      -11.37220887       2.19505706       0.39593804
C      -12.30949790       3.21740383       0.55767892
C      -11.92844716       4.42334535       1.14643370
Br     -13.20228642       5.80464555       1.35444921
C      -10.61924933       4.61900308       1.58047327
H       -2.34992768       7.00744057       6.27801897
H       -2.11439726       6.77064366       4.53988443
H       -2.24888080       5.36871847       5.62332703
H       -4.46067789       7.42751768       5.16037546
H       -4.61184117       5.97270973       6.13446556
H       -4.75779482       3.72512837       4.94367727
H       -4.34933028       1.55947836       3.99556301
H       -2.92346120       0.13801242       2.59390541
H       -0.84934810       3.63174867       1.17319702
H       -2.26784772       5.04934991       2.55610519
H       -5.98199733       4.06546938       2.64158956
H       -7.57897045       2.96062223       1.60139602
H       -9.33555687       1.57834119       0.69169525
H      -11.67014014       1.25377750      -0.05984950
H      -13.33269766       3.06480468       0.22223494
H      -10.32470016       5.55931475       2.04155184
C        3.71625899      -7.06179484       3.64823950
C        4.97102421      -6.48953440       4.29261556
C        5.31847217      -5.08160346       3.79459014
H        5.43478184      -5.09799051       2.70494780
N        4.30230387      -4.10376439       4.22680534
C        3.43187100      -3.41337698       3.40955140
C        2.82151275      -2.25774816       3.91869588
C        2.00733025      -1.44646364       3.11954486
C        1.79079691      -1.79079691       1.79079691
C        2.38153917      -2.93142933       1.26106416
C        3.20704633      -3.72741938       2.06653170
C        6.69834543      -4.62616420       4.33443239
O        7.55192114      -5.40412457       4.75658401
N        6.84919358      -3.24724708       4.22150819
N        7.98025474      -2.62817686       4.65095095
C        7.93651896      -1.33405250       4.64571140
C        9.08706520      -0.52054121       5.08337768
C        8.92931460       0.86481517       5.19449882
C       10.00371401       1.65268552       5.61217549
C       11.23086901       1.05701807       5.91072970
C       11.37977408      -0.32507541       5.79337673
Br      13.04700051      -1.12198771       6.19239296
C       10.31287414      -1.12183259       5.38401895
H        3.56341142      -8.09459238       3.97738342
H        3.80197039      -7.06616505       2.55678992
H        2.82691125      -6.48863302       3.92538203
H        5.80317886      -7.17008641       4.07530576
H        4.84795950      -6.48793242       5.38312454
H        4.15483149      -4.04104700       5.23072197
H        2.99080614      -1.96186553       4.95169998
H        1.55960783      -0.55223012       3.54354108
H        2.21339813      -3.21516671       0.22572894
H        3.64266963      -4.61420027       1.61643292
H        6.02737675      -2.70952211       3.95215741
H        7.03367372      -0.78509209       4.32222290
H        7.97845354       1.33987529       4.96701505
H        9.88670226       2.72963873       5.70700461
H       12.06367460       1.67748029       6.23354297
H       10.43037233      -2.19974206       5.29545236
C       -0.00445707       0.01189536      -1.78238275
H       -0.66409135       0.67374010      -2.43557963
H        0.65740317      -0.63156657      -2.45157240
C       -0.90989263      -0.90692880      -0.91072765
C        0.90977584       0.90977584      -0.90977584
C       -0.00465871       1.77757030       0.00794375
H       -0.66225468       2.44313916      -0.64384735
H        0.64322798       2.43503045       0.67728295
C       -1.78241447       0.00034974      -0.00472694
H       -2.45427497      -0.65498947       0.64260836
H       -2.43311707       0.67328779      -0.65473579
C       -0.91132561       0.90220522       0.91563759
C       -0.01476271      -0.02253852       1.78660255
H       -0.67934791      -0.69751639       2.42135241
H        0.63392994       0.61504881       2.47327442
C        0.01484550      -1.77751727      -0.01636693
H        0.67870853      -2.42144646      -0.68295456
H       -0.62264859      -2.45592969       0.64226336
C        1.78714474       0.01002794       0.00389507
H        2.44202412       0.67113390       0.66197326
H        2.45385902      -0.65136977      -0.64189061
C        0.91606151      -0.90478549       0.90901405
