173
Properties=species:S:1:pos:R:3 pbc="F F F"
C        0.00000000       0.00000000       0.00000000
C        5.97805269       2.14072508      -4.07092169
C        4.64680982       1.90240562      -4.77790242
C        3.64926210       3.07079667      -4.67564742
H        2.73295512       2.81636979      -5.21591549
N        3.29434798       3.36545571      -3.27246732
C        2.51396501       2.50037622      -2.51413843
C        2.61465869       2.54274475      -1.11659665
C        1.81657939       1.73134893      -0.30185555
C        0.88128649       0.88128649      -0.88128649
C        0.73643663       0.84234997      -2.26267505
C        1.54391441       1.65363065      -3.06784717
C        4.23550390       4.33132678      -5.35379607
O        4.84973792       5.20549414      -4.73449050
N        4.08094215       4.42924234      -6.72207583
N        3.36131173       3.51775095      -7.42767017
C        3.17845578       3.78456732      -8.68286886
C        2.37121362       2.88527758      -9.54083786
C        1.83799077       1.71267669      -8.98414907
C        1.05786827       0.87020738      -9.76857992
Br       0.33032365      -0.70484253      -9.01968284
C        0.80686560       1.18352998     -11.10097087
C        1.34019833       2.35169662     -11.65776730
C        2.12526337       3.21645279     -10.88487863
O        2.67637255       4.38227500     -11.34697771
C        2.40135638       4.75304176     -12.69331088
H        6.60699271       1.24795180      -4.15009948
H        5.84011980       2.35482159      -3.00705738
H        6.52795984       2.97160563      -4.52311970
H        4.19567738       0.99384831      -4.36205277
H        4.85574879       1.68891589      -5.83298820
H        4.04692927       3.83637957      -2.77462450
H        3.32899755       3.21270235      -0.64414806
H        1.93022323       1.78019865       0.77717526
H       -0.00539445       0.19918087      -2.72790287
H        1.37776040       1.61760542      -4.13978791
H        4.44433752       5.26548727      -7.16734272
H        3.60379671       4.69296223      -9.14469545
H        2.02716348       1.46365233      -7.94275637
H        0.19531557       0.52768937     -11.71653955
H        1.11779688       2.55546599     -12.70068879
H        2.82432667       4.02602213     -13.39415533
H        2.88526980       5.71654556     -12.87931478
H        1.32658139       4.88422407     -12.85663041
C       -3.73789622      -6.12377729      -2.32802595
C       -4.52840844      -4.88640418      -1.91230523
C       -4.61549772      -3.79019937      -2.99000911
H       -5.20467054      -2.95086175      -2.60970812
N       -3.27907166      -3.28646637      -3.36673297
C       -2.51290667      -2.51510828      -2.50046471
C       -1.12142650      -2.48497877      -2.66759483
C       -0.30560575      -1.68649574      -1.85768238
C       -0.88128649      -0.88128649      -0.88128649
C       -2.26071048      -0.86584669      -0.71490449
C       -3.06624440      -1.67280014      -1.52634770
C       -5.35400630      -4.32881235      -4.23780810
O       -4.76757619      -4.80978264      -5.21236374
N       -6.73361834      -4.29119154      -4.20745043
N       -7.41104986      -3.71653316      -3.17914982
C       -8.69607844      -3.62657806      -3.32323546
C       -9.53310568      -2.97775605      -2.28646732
C       -8.91869987      -2.49546247      -1.12065420
C       -9.68564037      -1.86218122      -0.14883398
Br      -8.86016467      -1.20302714       1.41802785
C      -11.05714252      -1.70772599      -0.32649795
C      -11.67124452      -2.19050632      -1.48791142
C      -10.91736673      -2.82788850      -2.48133956
O      -11.43580099      -3.31993053      -3.64989374
C      -12.82833386      -3.13813947      -3.88123568
H       -3.68344740      -6.82920535      -1.49239125
H       -2.71291767      -5.87279220      -2.61628890
H       -4.21627567      -6.64152252      -3.16488699
H       -4.07087257      -4.47642258      -1.00428332
H       -5.53883795      -5.20701255      -1.63180238
H       -2.76519193      -3.94919498      -3.94354643
H       -0.65394420      -3.09553854      -3.43636522
H        0.77026255      -1.69752122      -2.00598795
H       -2.72573357      -0.22512617       0.02917045
H       -4.14059471      -1.60795589      -1.38660312
H       -7.22108119      -4.62276432      -5.03332200
H       -9.20136859      -4.01514005      -4.22494576
H       -7.84694549      -2.60956997      -0.97705673
H      -11.65941047      -1.21096476       0.43083074
H      -12.74317560      -2.04731523      -1.58346084
H      -13.42294480      -3.68169426      -3.13986507
H      -13.06001934      -3.55528239      -4.86582842
H      -13.09147756      -2.07540453      -3.90055378
C       -2.00986077       4.36946011       5.81037859
C       -1.92970034       4.98231832       4.41509919
C       -3.15730748       4.71265857       3.52574014
H       -3.01663058       5.19457378       2.55403604
N       -3.36325391       3.26728333       3.30173377
C       -2.50047290       2.51515348       2.51285328
C       -2.42205131       1.13108705       2.72086173
C       -1.60938925       0.31744305       1.92295157
C       -0.88128649       0.88128649       0.88128649
C       -0.96511489       2.24547093       0.63087583
C       -1.77618600       3.05037271       1.43883352
C       -4.42116719       5.33982809       4.15963147
O       -5.19401128       4.70858983       4.88712145
N       -4.64068142       6.67996504       3.91161385
N       -3.84559857       7.39123589       3.06989839
C       -4.22595830       8.60406225       2.81587140
C       -3.46187482       9.45878430       1.87666993
C       -2.29126599       8.95004788       1.29350266
C       -1.57568324       9.72962322       0.39134911
Br      -0.00406236       9.04422841      -0.40312681
C       -2.01360362      11.01018452       0.06757831
C       -3.17980567      11.51936838       0.65048820
C       -3.91810341      10.74999815       1.55849323
O       -5.07298898      11.16667341       2.16596288
C       -5.57092702      12.45485502       1.82192696
H       -1.08189149       4.56576863       6.35738387
H       -2.14694647       3.28490536       5.77014694
H       -2.83113150       4.80124266       6.39031102
H       -1.02677856       4.60045808       3.92434183
H       -1.78719842       6.06384401       4.52661045
H       -3.73478385       2.79810809       4.12504140
H       -2.99631714       0.66917656       3.52035426
H       -1.56219535      -0.74948747       2.12053874
H       -0.41894646       2.69597849      -0.19323567
H       -1.83947954       4.10505146       1.19062273
H       -5.48066991       7.08937648       4.30712112
H       -5.13436486       9.02954644       3.27754309
H       -1.94540571       7.94890725       1.53925923
H       -1.45725531      11.62160022      -0.63931103
H       -3.48329455      12.52272565       0.36793146
H       -4.87337149      13.23999984       2.13113280
H       -6.50742489      12.60680970       2.36689555
H       -5.79488360      12.52046727       0.75208500
C        4.21054247      -5.90400794       2.07514905
C        4.87577565      -4.54044177       1.91090043
C        4.69495332      -3.59116022       3.10959265
H        5.20964432      -2.64733916       2.90825692
N        3.26995591      -3.29776435       3.36455074
C        2.51462368      -2.51345533       2.50040065
C        1.12115149      -2.66551415       2.48733445
C        0.30690822      -1.86753671       1.67533894
C        0.88128649      -0.88128649       0.88128649
C        2.25686820      -0.68583427       0.89875919
C        3.06190751      -1.49353533       1.70994940
C        5.34889042      -4.19910202       4.37263430
O        4.72193346      -4.86703661       5.20075250
N        6.70613166      -3.99948970       4.52663895
N        7.41669137      -3.22183273       3.66820875
C        8.65391890      -3.00426171       3.98771135
C        9.51296922      -2.13411746       3.15024237
C        8.97915406      -1.57804297       1.97761951
C        9.76373854      -0.73971495       1.19320207
Br       9.04514787       0.01846826      -0.38151564
C       11.07386959      -0.45305289       1.56444397
C       11.60795475      -1.00906898       2.73263852
C       10.83428404      -1.85274639       3.53956436
O       11.27453977      -2.42981167       4.70127382
C       12.59565256      -2.12079823       5.13125823
H        4.34481391      -6.49620691       1.16402318
H        3.13532880      -5.81219828       2.25447170
H        4.65283189      -6.46781638       2.90203690
H        4.47622126      -4.07110049       1.00425671
H        5.94483164      -4.70349951       1.72932173
H        2.78383303      -4.08458262       3.78951770
H        0.65186152      -3.42060796       3.11337848
H       -0.76822689      -2.02138950       1.68008401
H        2.71697128       0.09546479       0.30018279
H        4.12755819      -1.28797044       1.71962510
H        7.13439695      -4.37747996       5.36529061
H        9.09843948      -3.44619709       4.89681783
H        7.95504753      -1.79494313       1.68358152
H       11.68939410       0.20397840       0.95412880
H       12.63397366      -0.75725273       2.98272527
H       13.33721341      -2.49123216       4.41605856
H       12.76491741      -2.63312442       6.08308832
H       12.71424682      -1.04647356       5.30671548
