181
Properties=species:S:1:pos:R:3 pbc="F F F"
C        0.00000000       0.00000000       0.00000000
C        5.97805269       2.14072508      -4.07092169
C        4.64680982       1.90240562      -4.77790242
C        3.64926210       3.07079667      -4.67564742
H        2.73295512       2.81636979      -5.21591549
N        3.29434798       3.36545571      -3.27246732
C        2.51396501       2.50037622      -2.51413843
C        2.61465869       2.54274475      -1.11659665
C        1.81657939       1.73134893      -0.30185555
C        0.88128649       0.88128649      -0.88128649
C        0.73643663       0.84234997      -2.26267505
C        1.54391441       1.65363065      -3.06784717
C        4.23550390       4.33132678      -5.35379607
O        4.84973792       5.20549414      -4.73449050
N        4.08094215       4.42924234      -6.72207583
N        3.36131173       3.51775095      -7.42767017
C        3.17845578       3.78456732      -8.68286886
C        2.37121362       2.88527758      -9.54083786
C        1.83799077       1.71267669      -8.98414907
C        1.05786827       0.87020738      -9.76857992
C        0.80686560       1.18352998     -11.10097087
C        1.34019833       2.35169662     -11.65776730
C        2.12526337       3.21645279     -10.88487863
O        2.67637255       4.38227500     -11.34697771
C        2.40135638       4.75304176     -12.69331088
H        6.60699271       1.24795180      -4.15009948
H        5.84011980       2.35482159      -3.00705738
H        6.52795984       2.97160563      -4.52311970
H        4.19567738       0.99384831      -4.36205277
H        4.85574879       1.68891589      -5.83298820
H        4.04692927       3.83637957      -2.77462450
H        3.32899755       3.21270235      -0.64414806
H        1.93022323       1.78019865       0.77717526
H       -0.00539445       0.19918087      -2.72790287
H        1.37776040       1.61760542      -4.13978791
H        4.44433752       5.26548727      -7.16734272
H        3.60379671       4.69296223      -9.14469545
H        2.02716348       1.46365233      -7.94275637
H        0.19531557       0.52768937     -11.71653955
H        1.11779688       2.55546599     -12.70068879
H        2.82432667       4.02602213     -13.39415533
H        2.88526980       5.71654556     -12.87931478
H        1.32658139       4.88422407     -12.85663041
C        0.50345933      -0.33002383      -9.19789982
C        0.03914184      -1.33521746      -8.71995523
Br      -0.71162027      -2.96053055      -7.94715926
C       -5.73871050      -4.48084179      -1.97014717
C       -5.62871381      -3.09620063      -2.60220341
C       -4.62653227      -3.00188196      -3.76729196
H       -4.62120611      -1.98191800      -4.16211629
N       -3.25465066      -3.34045670      -3.33716364
C       -2.51845999      -2.50643991      -2.50357977
C       -1.48233498      -3.05592148      -1.73574363
C       -0.67567885      -2.25586987      -0.91823515
C       -0.88128649      -0.88128649      -0.88128649
C       -1.87957995      -0.30481953      -1.65706217
C       -2.68405894      -1.11512767      -2.46620563
C       -5.06725070      -3.92926772      -4.92410833
O       -4.64667413      -5.08227678      -5.06077166
N       -6.00617370      -3.42474193      -5.80134469
N       -6.44734674      -2.14223432      -5.71715179
C       -7.22929400      -1.74501964      -6.67157832
C       -7.73591421      -0.35274351      -6.70867134
C       -7.38979666       0.52439954      -5.66941941
C       -7.83637036       1.84092478      -5.70120999
C       -8.62546885       2.28990959      -6.75580719
C       -8.97315295       1.41515374      -7.79166304
C       -8.53104534       0.08627030      -7.78181975
O       -8.81621636      -0.83129967      -8.75810924
C       -9.58443204      -0.39089515      -9.87238182
H       -6.43202066      -4.44977319      -1.12325015
H       -4.77365711      -4.83358240      -1.59475926
H       -6.12308155      -5.21655261      -2.68305102
H       -5.35160100      -2.38230849      -1.81766897
H       -6.62583230      -2.80137552      -2.95044506
H       -3.13321857      -4.33953199      -3.18518278
H       -1.29558917      -4.12675586      -1.76350294
H        0.10975123      -2.71667821      -0.32631963
H       -2.03704722       0.77017618      -1.65481825
H       -3.43104113      -0.62314486      -3.08096774
H       -6.28095611      -4.02177577      -6.57443564
H       -7.52774239      -2.42417444      -7.48953757
H       -6.77051260       0.18115259      -4.84421217
H       -8.97456821       3.31964004      -6.78461633
H       -9.58987532       1.80939517      -8.59347151
H      -10.59079814      -0.09256068      -9.56114530
H       -9.68465697      -1.23404031     -10.56243286
H       -9.07751366       0.41835033     -10.40827253
C       -7.47668403       2.74510528      -4.63975657
C       -7.17544673       3.50235645      -3.75078932
Br      -6.68837150       4.72676754      -2.31340447
C       -2.21685422       3.92600819       6.04683705
C       -1.90146632       4.67212833       4.75352321
C       -3.03359865       4.65192681       3.71018074
H       -2.72426644       5.21558073       2.82539323
N       -3.36616481       3.27523431       3.29087188
C       -2.50038919       2.51361538       2.51447510
C       -2.59834493       1.11596810       2.55968706
C       -1.78758537       0.30073845       1.76146005
C       -0.88128649       0.88128649       0.88128649
C       -0.78565744       2.26457146       0.79123276
C       -1.59701811       3.06989318       1.59848095
C       -4.28976151       5.35588653       4.27497870
O       -5.20925584       4.74834220       4.83212452
N       -4.33090119       6.73170639       4.16965274
N       -3.36688447       7.42788488       3.51196350
C       -3.57978453       8.69833147       3.36777596
C       -2.61893639       9.55038226       2.62801040
C       -1.44811744       8.96912782       2.11757127
C       -0.54777634       9.74892682       1.39995241
C       -0.80163472      11.10076933       1.18896240
C       -1.96802599      11.68195658       1.69967968
C       -2.89038471      10.91435764       2.42185244
O       -4.05862700      11.40023396       2.94676430
C       -4.36840715      12.76909848       2.71020338
H       -1.34661955       3.94742496       6.71099948
H       -2.46475052       2.87700931       5.86023894
H       -3.05095349       4.38915571       6.58257598
H       -0.99225482       4.23862956       4.32069408
H       -1.65723301       5.70975404       5.01066583
H       -3.88381417       2.76833991       4.00577926
H       -3.31233185       0.64350595       3.23001015
H       -1.88071165      -0.77908287       1.83161784
H       -0.09763055       2.73187227       0.09218647
H       -1.51494042       4.14507326       1.47514006
H       -5.16343818       7.19504863       4.51868071
H       -4.48613829       9.17869079       3.77662531
H       -1.24530632       7.91263256       2.27563331
H       -0.10039722      11.71288249       0.62626479
H       -2.12431165      12.73946834       1.51017167
H       -3.63273476      13.42530212       3.18646725
H       -5.34226284      12.97397914       3.16488816
H       -4.45200144      12.97704829       1.63838613
C        0.65093028       9.15342286       0.86884273
C        1.65484707       8.65468830       0.42403837
Br       3.27809561       7.84827670      -0.29517266
C        3.59734628      -2.42040283       6.17195035
C        2.46737699      -3.26692442       5.59281644
C        2.87136955      -4.13634265       4.38799399
H        2.00608808      -4.71198617       4.04716615
N        3.35671199      -3.31570363       3.25985539
C        2.50332535      -2.50676206       2.51839225
C        3.03639051      -1.40897890       1.82863068
C        2.23325252      -0.59073067       1.02580067
C        0.88128649      -0.88128649       0.88128649
C        0.33220137      -1.98242297       1.52683732
C        1.14337654      -2.79015845       2.33185725
C        3.95350697      -5.15829054       4.80882923
O        5.16359117      -4.95208168       4.67404971
N        3.50995245      -6.32621464       5.39609322
N        2.18636349      -6.61309084       5.50727852
C        1.89514999      -7.79316637       5.95757559
C        0.48516041      -8.23325688       6.07891177
C       -0.53859277      -7.33648855       5.73692075
C       -1.86622794      -7.74133458       5.82154893
C       -2.18263452      -9.02838169       6.24561928
C       -1.16231019      -9.92280430       6.58916814
C        0.18167239      -9.53740732       6.50751507
O        1.23996988     -10.35113476       6.81452062
C        0.95089303     -11.68771980       7.20909618
H        3.21634267      -1.79939725       6.98930408
H        4.02889844      -1.75135654       5.42174379
H        4.39726496      -3.04593122       6.57948899
H        1.64870269      -2.59626184       5.30661393
H        2.07744070      -3.90681625       6.39339592
H        4.28868112      -2.94222853       3.42702370
H        4.09463813      -1.17495867       1.91625116
H        2.67678296       0.25959321       0.51605686
H       -0.71772379      -2.23405238       1.40536070
H        0.68374043      -3.65863112       2.79278218
H        4.21554244      -7.00872149       5.65290358
H        2.68510777      -8.50777801       6.24856862
H       -0.29829463      -6.33054058       5.40132623
H       -3.22002214      -9.34872162       6.31084502
H       -1.45628886     -10.91610206       6.91413847
H        0.38951545     -11.70612616       8.14886251
H        1.90336721     -12.19857198       7.37919096
H        0.42060268     -12.22852484       6.41830834
C       -2.91848112      -6.82550427       5.46431216
C       -3.79974316      -6.05849640       5.16512637
Br      -5.22466933      -4.81830953       4.68136824
