182
Properties=species:S:1:pos:R:3 pbc="F F F"
C        2.32482613      -7.04456192      -5.12277881
C        3.13945784      -5.76149441      -5.16442661
C        3.55996188      -5.33277644      -3.76120311
N        4.30940485      -4.09786657      -3.76753684
C        3.70913512      -2.85486532      -3.75242669
O        2.53179924      -2.57005437      -3.77301143
C        4.86363685      -1.84137410      -3.67278687
N        4.58572034      -0.58035240      -3.59912059
N        5.55029538       0.36367391      -3.53510171
C        5.24152838       1.70753117      -3.40191270
O        6.08509201       2.56402627      -3.67909220
C        3.88447534       2.14787508      -2.96577815
C        3.07666980       1.36376600      -2.13028622
C        1.79237363       1.79237363      -1.79237363
C        1.30551905       3.01327767      -2.25309484
C        2.11941105       3.82383515      -3.04333138
C        3.40366365       3.39938820      -3.38490966
O        4.14320636       4.27289114      -4.13906623
C        6.09966806      -2.63247136      -3.65614575
C        7.43305832      -2.27838026      -3.54148279
C        8.37713900      -3.30940996      -3.54314420
Br      10.21495339      -2.88511912      -3.38836457
C        7.99225210      -4.65556008      -3.64833702
C        6.64111998      -4.99999979      -3.74085546
C        5.70612040      -3.97798030      -3.73363447
H        2.01533157      -7.33253030      -6.13200165
H        1.42316798      -6.91702291      -4.51462861
H        2.91065651      -7.86609856      -4.69818714
H        2.54329003      -4.97081643      -5.63562992
H        4.02428858      -5.90922327      -5.79416709
H        4.13852602      -6.11842866      -3.26429626
H        2.66090924      -5.17105552      -3.15305461
H        6.45428210       0.18543808      -3.95186592
H        3.43501217       0.41485125      -1.74381894
H        0.30279242       3.34465840      -1.99706010
H        1.75616754       4.78662758      -3.39282604
H        5.06807610       3.94106418      -4.16200281
H        7.75813176      -1.25304628      -3.43166750
H        8.74390370      -5.44295015      -3.64706784
H        6.35477432      -6.04378138      -3.81099112
C       -1.13194230       6.67818829      -5.94928901
C       -2.06380013       5.47684537      -5.95543528
C       -2.65101241       5.23085681      -4.56823295
N       -3.51666984       4.07483604      -4.53724133
C       -3.04778545       2.79017664      -4.34908767
O       -1.90792723       2.39883271      -4.22566177
C       -4.30042145       1.89899329      -4.29362147
N       -4.15805746       0.63166488      -4.07809595
N       -5.21413498      -0.20953242      -4.02540361
C       -5.05491465      -1.55577945      -3.74027815
O       -5.95129151      -2.35542993      -4.02148905
C       -3.79411197      -2.07183095      -3.13218565
C       -2.99119808      -1.28473109      -2.29479286
C       -1.79237363      -1.79237363      -1.79237363
C       -1.39036703      -3.09247929      -2.08904525
C       -2.20607675      -3.90069824      -2.87980260
C       -3.40494130      -3.39754923      -3.38547098
O       -4.15657142      -4.27128410      -4.12730821
C       -5.44736994       2.79691240      -4.47288492
C       -6.81439370       2.57884565      -4.46061280
C       -7.64638098       3.68610235      -4.65059461
Br      -9.52387073       3.44838140      -4.64270951
C       -7.12064211       4.97433060      -4.83871752
C       -5.73902050       5.18343877      -4.82639392
C       -4.91563411       4.08649226      -4.63263273
H       -0.70465363       6.83427957      -6.94442886
H       -0.30666514       6.53071622      -5.24482475
H       -1.66872664       7.58798282      -5.66200127
H       -1.50944300       4.59201713      -6.29067765
H       -2.86841865       5.64062869      -6.68144243
H       -3.19076905       6.11167859      -4.20530316
H       -1.83174011       5.04975394      -3.86092216
H       -6.05405020       0.00755026      -4.54508616
H       -3.28636082      -0.27324017      -2.03408136
H       -0.45333797      -3.48637783      -1.70479513
H       -1.91081084      -4.92268209      -3.10212823
H       -5.03761727      -3.86067952      -4.27284630
H       -7.24915846       1.60350614      -4.29110067
H       -7.78663770       5.82297805      -4.98436175
H       -5.34438908       6.18455302      -4.96214799
C        2.66957440       7.42810027      -4.35548285
C        1.99410909       7.53398467      -2.99748553
C        2.68791321       6.64510488      -1.96880312
N        2.04708417       6.70157276      -0.67541347
C        0.96725982       5.91096274      -0.33700644
O        0.36119214       5.10836190      -1.01241346
C        0.67183976       6.22785889       1.13903049
N       -0.27832196       5.58733476       1.73883181
N       -0.59637808       5.82173688       3.03095605
C       -1.57953184       5.09222151       3.67921891
O       -2.08446892       5.52570466       4.71803690
C       -2.07593912       3.80056449       3.12162495
C       -1.26810577       2.96508540       2.33753085
C       -1.79237363       1.79237363       1.79237363
C       -3.11112894       1.41965924       2.04110338
C       -3.90810186       2.21770531       2.86077041
C       -3.38908105       3.39164071       3.40723975
O       -4.23358012       4.09735140       4.22423221
C        1.65764139       7.23677407       1.54420977
C        1.91534283       7.85652914       2.75497454
C        2.96525737       8.77858128       2.79754933
Br       3.36412332       9.65621129       4.42611087
C        3.73784872       9.06273119       1.66014656
C        3.48096663       8.41302049       0.44992180
C        2.44392586       7.49554272       0.41015771
H        2.15364635       8.05632354      -5.08787427
H        2.65354943       6.39636478      -4.72204168
H        3.71273106       7.75541842      -4.29994227
H        0.94101294       7.24391872      -3.09480225
H        2.00577319       8.57753032      -2.66252474
H        3.74737465       6.90427987      -1.87251160
H        2.64825816       5.60366655      -2.31250005
H       -0.42570412       6.73454427       3.43133772
H       -0.23233585       3.22211416       2.13923235
H       -3.52290844       0.51071504       1.61088744
H       -4.93272597       1.92658634       3.07630885
H       -3.70405277       4.79161035       4.67547997
H        1.35566847       7.63842647       3.65399497
H        4.55136091       9.78391222       1.71547009
H        4.09103874       8.63258219      -0.41955940
C       -3.91149900      -7.48014951      -3.16560750
C       -3.09795081      -7.52220689      -1.88186604
C       -3.57205698      -6.45715176      -0.89670623
N       -2.79508392      -6.45307894       0.32108010
C       -1.60723987      -5.76205037       0.45188599
O       -1.00356006      -5.10939981      -0.37108345
C       -1.17732141      -5.95630765       1.91606338
N       -0.10285018      -5.37143017       2.33590854
N        0.33668177      -5.50588094       3.60650830
C        1.45858081      -4.83189102       4.06050042
O        2.03275203      -5.21090258       5.08455587
C        2.01827003      -3.67121567       3.30864287
C        1.21605150      -2.83361181       2.52105870
C        1.79237363      -1.79237363       1.79237363
C        3.16254253      -1.55112811       1.85822092
C        3.96203237      -2.34680876       2.67773645
C        3.39091865      -3.38972735       3.40731551
O        4.24661847      -4.09997579       4.20856947
C       -2.20880087      -6.79680004       2.53534328
C       -2.38739615      -7.25367726       3.82987974
C       -3.51519797      -8.03852348       4.08754773
Br      -3.81158852      -8.69048694       5.83930041
C       -4.43957473      -8.34764691       3.07695686
C       -4.25862125      -7.86102722       1.77956968
C       -3.14368542      -7.07891756       1.52654243
H       -3.55177601      -8.23640385      -3.86982491
H       -3.83117363      -6.50080328      -3.64885597
H       -4.96947584      -7.67692747      -2.96470654
H       -2.03885468      -7.36770987      -2.12075167
H       -3.17885178      -8.51700012      -1.42891595
H       -4.63435775      -6.58050233      -0.66175095
H       -3.46473535      -5.46858737      -1.36094368
H        0.11983123      -6.34632879       4.12542609
H        0.14326103      -2.98812187       2.46229945
H        3.61371326      -0.74551089       1.28528677
H        5.02934264      -2.15554496       2.75073357
H        3.70381977      -4.67770041       4.78962291
H       -1.70780173      -7.00985078       4.63470393
H       -5.31154905      -8.96011869       3.29945175
H       -4.98473135      -8.09739664       1.00931877
C       -0.00445707       0.01189536      -1.78238275
H       -0.66409135       0.67374010      -2.43557963
H        0.65740317      -0.63156657      -2.45157240
C       -0.90989263      -0.90692880      -0.91072765
C        0.90977584       0.90977584      -0.90977584
C       -0.00465871       1.77757030       0.00794375
H       -0.66225468       2.44313916      -0.64384735
H        0.64322798       2.43503045       0.67728295
C       -1.78241447       0.00034974      -0.00472694
H       -2.45427497      -0.65498947       0.64260836
H       -2.43311707       0.67328779      -0.65473579
C       -0.91132561       0.90220522       0.91563759
C       -0.01476271      -0.02253852       1.78660255
H       -0.67934791      -0.69751639       2.42135241
H        0.63392994       0.61504881       2.47327442
C        0.01484550      -1.77751727      -0.01636693
H        0.67870853      -2.42144646      -0.68295456
H       -0.62264859      -2.45592969       0.64226336
C        1.78714474       0.01002794       0.00389507
H        2.44202412       0.67113390       0.66197326
H        2.45385902      -0.65136977      -0.64189061
C        0.91606151      -0.90478549       0.90901405
