182
Properties=species:S:1:pos:R:3 pbc="F F F"
C        1.79145650       1.79145650      -1.79145650
C        1.55318312       1.85461087      -3.16259099
C        2.36334425       2.65711421      -3.97218817
C        3.41597501       3.40036547      -3.41664788
C        3.63199924       3.33509266      -2.03234267
C        2.82636065       2.52890562      -1.22144695
C        4.29050642       4.22412888      -4.24396390
C        4.62541523       3.91917368      -5.54887730
S        5.75191713       5.06094018      -6.14627726
C        5.64298481       5.92647829      -4.66879519
N        4.87537437       5.38234892      -3.75232040
N        6.31963228       7.12789236      -4.58337197
N        7.24137835       7.56679931      -5.55149163
C        7.61064819       8.76677834      -5.20744808
C        8.57861088       9.63742041      -5.91296222
C        6.86904106       9.21109545      -4.00140911
N        6.89600898      10.41941362      -3.53622516
N        6.04270368      10.67147477      -2.50863939
C        6.20830205      11.82667268      -1.72465727
C        5.32849151      12.04809875      -0.65372922
C        5.42495579      13.19919952       0.13180368
C        6.39471942      14.15586663      -0.15601970
C        7.25232843      13.96016850      -1.23658767
Br       8.56191639      15.26423482      -1.63858812
C        7.15417577      12.81314851      -2.02500267
C        6.06318098       8.02577561      -3.56220103
O        5.38509816       8.02360666      -2.55654717
H        0.74123229       1.28790503      -3.61090727
H        2.14891379       2.70050229      -5.03697399
H        4.43830418       3.90842721      -1.57730487
H        3.01615040       2.48608399      -0.15208412
H        4.30472416       3.08958382      -6.16159151
H        9.26084834      10.09683230      -5.19323559
H        8.04090555      10.41920376      -6.45535069
H        9.16102376       9.04502213      -6.62424807
H        5.53410418       9.90687548      -2.04532167
H        4.55469077      11.31905211      -0.42491973
H        4.74021969      13.34701266       0.96283222
H        6.46896176      15.04892012       0.45789111
H        7.82160029      12.67825948      -2.87116484
C       -1.79145650      -1.79145650      -1.79145650
C       -2.62974994      -2.73649441      -1.20414063
C       -3.43353656      -3.54861457      -2.01049550
C       -3.40392930      -3.42141548      -3.40764359
C       -2.56409528      -2.45501056      -3.98032873
C       -1.75528644      -1.64536960      -3.17605718
C       -4.21358419      -4.27440911      -4.27060590
C       -4.54495644      -5.58072225      -3.96778752
S       -5.40834616      -6.28225992      -5.26852849
C       -5.36134603      -4.78026558      -6.09664668
N       -4.69376685      -3.82419921      -5.49207763
N       -6.05829508      -4.68680716      -7.28579438
N       -6.62073563      -5.79713709      -7.94179658
C       -7.27862301      -5.33886101      -8.96739059
C       -8.03277883      -6.12899820      -9.96721648
C       -7.23718006      -3.85570262      -8.98866294
N       -7.94626021      -3.12054408      -9.78484347
N       -7.88008123      -1.78141998      -9.56131664
C       -8.33756998      -0.88190997     -10.54015205
C       -8.23284773       0.49579187     -10.29326361
C       -8.70800527       1.43120855     -11.21555490
C       -9.31262971       0.99886598     -12.39284202
C       -9.44977546      -0.36685562     -12.63245352
Br     -10.28285990      -0.95745238     -14.22442706
C       -8.97988843      -1.30240012     -11.71003840
C       -6.32071523      -3.46027103      -7.87017138
O       -6.00898467      -2.30961785      -7.64664947
H       -2.66813066      -2.84825622      -0.12365770
H       -4.08927965      -4.26899261      -1.52811780
H       -2.52925654      -2.33289074      -5.06188898
H       -1.10535692      -0.90836098      -3.64060062
H       -4.30569131      -6.16120872      -3.08899946
H       -7.80877881      -5.76795316     -10.97418426
H       -9.10475100      -6.03428913      -9.77641988
H       -7.74929791      -7.18299793      -9.89799812
H       -7.19174423      -1.38924093      -8.90531617
H       -7.77808625       0.85087455      -9.37145092
H       -8.60830703       2.49379041     -11.00988352
H       -9.67912934       1.72844990     -13.10931133
H       -9.10316334      -2.36393238     -11.90392889
C       -1.79145650       1.79145650       1.79145650
C       -2.73112888       2.63549549       1.20376061
C       -3.53533391       3.44775785       2.00955487
C       -3.40491750       3.42159579       3.40647508
C       -2.46316860       2.55535942       3.98090654
C       -1.65400240       1.74604220       3.17666861
C       -4.21411818       4.27814535       4.26633566
C       -4.65597225       5.53520395       3.90229001
S       -5.47915923       6.26832826       5.21164707
C       -5.27197371       4.83481157       6.13147302
N       -4.57990883       3.88453239       5.54560247
N       -5.88079792       4.77973722       7.37036147
N       -6.47570348       5.89410824       7.98985758
C       -7.03069702       5.46695888       9.08721870
C       -7.77121594       6.27424731      10.08353026
C       -6.88348866       3.99494424       9.20311272
N       -7.48502012       3.27266029      10.09396734
N       -7.33946119       1.92837919       9.95497746
C       -7.66696319       1.07195004      11.02071878
C       -7.48185908      -0.30983837      10.85829876
C       -7.82813870      -1.20715616      11.87136909
C       -8.38291703      -0.73363927      13.05732799
C       -8.59992794       0.63357719      13.21557947
Br      -9.36595691       1.27880404      14.81997838
C       -8.25891142       1.53066651      12.20274903
C       -6.01705536       3.58284087       8.05126140
O       -5.64037613       2.44231791       7.88255795
H       -2.84834219       2.66803861       0.12366379
H       -4.27056079       4.08760041       1.52822887
H       -2.34867964       2.51234936       5.06300727
H       -0.92456368       1.08800662       3.64174821
H       -4.51659959       6.06678359       2.97251630
H       -7.45651494       6.00062082      11.09378046
H       -8.84407389       6.09595688       9.97542923
H       -7.56791761       7.33711542       9.92526093
H       -6.66987360       1.53709883       9.27932891
H       -7.06487258      -0.69831155       9.93210159
H       -7.66753670      -2.27271903      11.72958246
H       -8.64910609      -1.43344049      13.84432518
H       -8.44368174       2.59280200      12.33454087
C        1.79145650      -1.79145650       1.79145650
C        1.29953966      -2.26513053       3.00571479
C        2.10778038      -3.06793276       3.81693349
C        3.41168245      -3.40145960       3.41984632
C        3.88482286      -2.92690233       2.18770937
C        3.08012885      -2.11934875       1.37723561
C        4.28250067      -4.21563738       4.26046115
C        4.24596233      -4.20626841       5.64123547
S        5.48627717      -5.20636989       6.26648751
C        5.92048596      -5.65067072       4.66710162
N        5.24321270      -5.05383376       3.71299723
N        6.89482659      -6.61856793       4.51750210
N        7.67849169      -7.09811907       5.58305853
C        8.41673846      -8.05961758       5.10851857
C        9.41324829      -8.86613933       5.84960590
C        8.08698941      -8.31084595       3.68371027
N        8.53034843      -9.31896848       3.00233085
N        8.00728227      -9.45985973       1.75567584
C        8.63314004     -10.30440222       0.82208974
C        8.08596238     -10.41042094      -0.46606384
C        8.64597065     -11.26503438      -1.41865340
C        9.75370488     -12.04103577      -1.08813489
C       10.28482801     -11.96640671       0.19784988
Br      11.78120795     -13.02932868       0.65420270
C        9.72371821     -11.11675184       1.15185690
C        7.10411753      -7.24532135       3.30171875
O        6.67381299      -7.11637531       2.17506368
H        0.29142000      -2.01934745       3.32927713
H        1.69659571      -3.43654801       4.75324634
H        4.89078547      -3.17830834       1.85494245
H        3.46921747      -1.75516025       0.42994079
H        3.59625984      -3.65484956       6.30479008
H       10.32701159      -8.96561495       5.25828968
H        9.00255525      -9.85793229       6.05497246
H        9.65636482      -8.37690123       6.79702791
H        7.42117997      -8.72231578       1.34280558
H        7.21102104      -9.82374817      -0.73610660
H        8.21308377     -11.32511780      -2.41380144
H       10.18853962     -12.70300026      -1.83154911
H       10.14060774     -11.07645218       2.15396469
C       -0.00445707       0.01189536      -1.78238275
H       -0.66409135       0.67374010      -2.43557963
H        0.65740317      -0.63156657      -2.45157240
C       -0.90989263      -0.90692880      -0.91072765
C        0.90977584       0.90977584      -0.90977584
C       -0.00465871       1.77757030       0.00794375
H       -0.66225468       2.44313916      -0.64384735
H        0.64322798       2.43503045       0.67728295
C       -1.78241447       0.00034974      -0.00472694
H       -2.45427497      -0.65498947       0.64260836
H       -2.43311707       0.67328779      -0.65473579
C       -0.91132561       0.90220522       0.91563759
C       -0.01476271      -0.02253852       1.78660255
H       -0.67934791      -0.69751639       2.42135241
H        0.63392994       0.61504881       2.47327442
C        0.01484550      -1.77751727      -0.01636693
H        0.67870853      -2.42144646      -0.68295456
H       -0.62264859      -2.45592969       0.64226336
C        1.78714474       0.01002794       0.00389507
H        2.44202412       0.67113390       0.66197326
H        2.45385902      -0.65136977      -0.64189061
C        0.91606151      -0.90478549       0.90901405
