169
Properties=species:S:1:pos:R:3 pbc="F F F"
C        0.00000000       0.00000000       0.00000000
C        0.88155247       0.88155247      -0.88155247
C        0.64327910       0.94470685      -2.25268696
C        1.45344023       1.74721018      -3.06228414
C        2.50607099       2.49046145      -2.50674385
C        2.72209521       2.42518863      -1.12243864
C        1.91645662       1.61900159      -0.31154292
C        3.38060239       3.31422485      -3.33405988
C        3.71551120       3.00926966      -4.63897328
S        4.84201310       4.15103615      -5.23637324
C        4.73308079       5.01657427      -3.75889117
N        3.96547035       4.47244489      -2.84241638
N        5.40972825       6.21798834      -3.67346795
N        6.33147433       6.65689528      -4.64158761
C        6.70074416       7.85687431      -4.29754406
C        7.66870686       8.72751638      -5.00305819
C        5.95913704       8.30119143      -3.09150508
N        5.98610495       9.50950959      -2.62632114
N        5.13279966       9.76157074      -1.59873537
C        5.29839803      10.91676866      -0.81475325
C        4.41858748      11.13819473       0.25617481
C        4.51505177      12.28929549       1.04170771
C        5.48481540      13.24596261       0.75388433
C        6.34242441      13.05026448      -0.32668364
C        6.24427174      11.90324449      -1.11509864
C        5.15327696       7.11587159      -2.65229701
O        4.47519414       7.11370264      -1.64664314
H       -0.16867174       0.37800100      -2.70100324
H        1.23900976       1.79059827      -4.12706996
H        3.52840016       2.99852319      -0.66740085
H        2.10624638       1.57617997       0.75781990
H        3.39482013       2.17967980      -5.25168748
H        8.35094431       9.18692827      -4.28333157
H        7.13100153       9.50929973      -5.54544667
H        8.25111973       8.13511811      -5.71434405
H        4.62420016       8.99697145      -1.13541765
H        3.64478675      10.40914809       0.48498429
H        3.83031567      12.43710864       1.87273624
H        5.55905774      14.13901610       1.36779513
H        6.91169626      11.76835546      -1.96126082
C        7.33949225      14.04312836      -0.63275070
C        8.17453656      14.87465186      -0.88908185
Br       9.52473259      16.21915503      -1.30354766
C       -0.88155247      -0.88155247      -0.88155247
C       -2.17204926      -1.20236559      -0.46625805
C       -2.97866374      -2.01439946      -1.26987136
C       -2.50043656      -2.51061491      -2.49222482
C       -1.20366217      -2.16565803      -2.90040229
C       -0.39320374      -1.35807371      -2.09572368
C       -3.31340328      -3.38022814      -3.33525570
C       -4.24217859      -4.27713340      -2.84444215
S       -4.91168288      -5.18850754      -4.12923208
C       -3.99347079      -4.26703046      -5.24804497
N       -3.18466972      -3.37885515      -4.71680675
N       -4.21235283      -4.49610894      -6.59272278
N       -4.98218408      -5.56859967      -7.07917347
C       -5.05833774      -5.42593772      -8.37088707
C       -5.75779824      -6.31592275      -9.32556045
C       -4.38306183      -4.17432676      -8.79444496
N       -4.45027612      -3.68149208      -9.99016749
N       -3.88513245      -2.45592866     -10.15204466
C       -3.61417536      -1.97187621     -11.44386836
C       -3.00614373      -0.71422604     -11.58023764
C       -2.75113262      -0.17016967     -12.84133726
C       -3.11882344      -0.87163923     -13.98643101
C       -3.75163088      -2.10665415     -13.86108749
C       -4.01125391      -2.64926408     -12.60209688
C       -3.74681883      -3.61858551      -7.55604122
O       -3.05151627      -2.62476224      -7.55926141
H       -2.56089236      -0.82569224       0.47625210
H       -3.98662493      -2.23935722      -0.93069585
H       -0.81312550      -2.53289448      -3.84830422
H        0.61178810      -1.10956982      -2.42682472
H       -4.53553564      -4.46797395      -1.82267783
H       -5.12416334      -6.50024886     -10.19679196
H       -6.69148265      -5.84741231      -9.64685297
H       -5.98462093      -7.27151214      -8.84444881
H       -3.31410067      -2.03550421      -9.40698437
H       -2.72717607      -0.14544802     -10.69632646
H       -2.27028505       0.80093779     -12.92534080
H       -2.91722688      -0.44723990     -14.96581192
H       -4.51524138      -3.60771352     -12.51835763
C       -4.14224126      -2.82937980     -15.04375024
C       -4.46937745      -3.43466253     -16.03423029
Br      -4.99832900      -4.41335352     -17.63575275
C       -0.88155247       0.88155247       0.88155247
C       -1.08406136       2.21682677       0.53978477
C       -1.88656989       3.02704654       1.34931813
C       -2.49063227       2.50799988       2.50464414
C       -2.28665918       1.15786389       2.82519942
C       -1.48001382       0.34705007       2.01993725
C       -3.31060732       3.33975438       3.37852542
C       -3.09551912       4.68941323       3.57882179
S       -4.19065396       5.28936508       4.74940345
C       -4.92888855       3.74296107       4.83669660
N       -4.37007131       2.80949974       4.10076057
N       -6.05954202       3.62060184       5.62104069
N       -6.50598040       4.62739053       6.49658629
C       -7.63729739       4.22135003       6.99651512
C       -8.48555926       4.93660252       7.97711966
C       -8.03229493       2.92284168       6.39669694
N       -9.18888890       2.36575611       6.56729067
N       -9.41771894       1.25013237       5.82525447
C      -10.48234390       0.39300923       6.15456681
C      -10.67908797      -0.76550278       5.38702222
C      -11.74509295      -1.62991343       5.64746003
C      -12.64189265      -1.33615401       6.67115504
C      -12.47333339      -0.17210131       7.41814045
C      -11.41176978       0.69469275       7.15615235
C       -6.88192820       2.51166122       5.52785614
O       -6.84612176       1.45375445       4.93566370
H       -0.62641296       2.63631850      -0.35239895
H       -2.04059161       4.06185663       1.05422974
H       -2.75075392       0.73066687       3.71290341
H       -1.32814238      -0.69451664       2.29098070
H       -2.35164133       5.33655612       3.13798996
H       -8.82329432       4.24490316       8.75300668
H       -9.35287343       5.36468452       7.46818998
H       -7.91289630       5.74186048       8.44582510
H       -8.65893241       0.80716881       5.29048804
H       -9.99764074      -1.00182576       4.57313556
H      -11.87408747      -2.52714367       5.04774426
H      -13.46858148      -2.01128070       6.87297792
H      -11.29833592       1.60438227       7.73859435
C      -13.40546957       0.13924831       8.47065342
C      -14.18613363       0.40000361       9.35213303
Br     -15.44840137       0.82162289      10.77741101
C        0.88155247      -0.88155247       0.88155247
C        0.91012384      -0.67202386       2.25852521
C        1.72142415      -1.47487311       3.06663730
C        2.50875094      -2.49086910       2.50365626
C        2.45642740      -2.69613012       1.11716497
C        1.64984598      -1.89081934       0.30633583
C        3.38229695      -3.32402210       3.32256807
C        4.01212817      -2.88195349       4.46967248
S        5.03223721      -4.10957485       5.08761043
C        4.49550395      -5.16618494       3.84685734
N        3.66218361      -4.63894476       2.97920325
N        4.93684800      -6.47458875       3.88974779
N        5.94651041      -6.92193329       4.76151353
C        6.04011499      -8.21080140       4.60424615
C        6.97242470      -9.12750707       5.29934966
C        5.01373744      -8.69160887       3.64648724
N        4.75123803      -9.94109354       3.42960412
N        3.68328898     -10.18495665       2.62486013
C        3.50089126     -11.46234013       2.06668854
C        2.40380471     -11.67845325       1.21834945
C        2.15492900     -12.93855245       0.66915810
C        2.99291560     -14.00696116       0.97701691
C        4.06623029     -13.80978985       1.84335238
C        4.31337349     -12.55283416       2.39640723
C        4.34181398      -7.45902308       3.12060850
O        3.48908124      -7.48791337       2.25854531
H        0.30562617       0.10851510       2.71322143
H        1.71611568      -1.30091833       4.13964398
H        3.05306448      -3.48306643       0.65819328
H        1.63033935      -2.06123009      -0.76696299
H        3.95779603      -1.91688233       4.95150905
H        7.41572420      -9.82313686       4.58234310
H        6.43145150      -9.68925287       6.06504356
H        7.77189940      -8.55302050       5.77566198
H        3.22536632      -9.42145313       2.10976981
H        1.72972071     -10.85896856       0.98026127
H        1.30557493     -13.08264357       0.00646957
H        2.79837549     -14.98519148       0.54671173
H        5.14685222     -12.41536905       3.07909127
C        4.92829040     -14.91557940       2.17150150
C        5.65026573     -15.84167815       2.44632639
Br       6.81763879     -17.33910151       2.89069498
