137
Properties=species:S:1:pos:R:3 pbc="F F F"
C        0.00000000       0.00000000       0.00000000
C        0.88164269       0.88164269      -0.88164269
C        1.03787080       2.22750274      -0.57219703
C        1.83421348       3.02884675      -1.38886490
C        2.48636703       2.48656889      -2.50670791
Cl       3.38571424       3.60640665      -3.47423064
C        2.35824382       1.11937231      -2.81259841
C        1.52892606       0.33100439      -1.98863183
C        3.02995015       0.44588656      -3.92375664
N        2.68427072      -0.67632874      -4.53431459
C        3.70907889      -0.90039547      -5.42295182
C        3.92243104      -1.92924976      -6.35429099
C        5.08952284      -1.89646664      -7.13425333
C        6.01118389      -0.84153946      -6.98042066
C        5.81568937       0.18958013      -6.05158855
C        4.65236199       0.10334801      -5.30360165
O        4.23370222       0.95937013      -4.33231896
N        5.41459197      -2.87566725      -8.09438122
C        4.73403242      -4.04272512      -8.39477701
O        3.71541353      -4.43580649      -7.83781954
C        5.36172170      -4.79529311      -9.46592480
C        5.01443462      -5.99457812     -10.05963291
C        5.98075270      -6.25020504     -11.06265105
C        6.86360824      -5.19642202     -11.02064284
Br       8.35193328      -4.99738708     -12.12797343
O        6.50200635      -4.30881526     -10.05582134
H        0.54110220       2.66319574       0.29054526
H        1.94082272       4.08646400      -1.15196802
H        1.39906059      -0.72798078      -2.21451873
H        3.17656662      -2.70821216      -6.43756780
H        6.91613058      -0.81158875      -7.58574604
H        6.52224861       0.99880854      -5.91963993
H        6.26233281      -2.73230548      -8.63387452
H        4.15792184      -6.59994130      -9.79195392
H        6.02293558      -7.09848647     -11.73167618
C       -0.88164269      -0.88164269      -0.88164269
C       -0.73286658      -0.84183570      -2.26286830
C       -1.54987612      -1.64023305      -3.06181596
C       -2.50642928      -2.48897190      -2.48424265
Cl      -3.50141684      -3.37194387      -3.59299081
C       -2.64573696      -2.55844041      -1.08603718
C       -1.82698069      -1.72513694      -0.29644465
C       -3.57652096      -3.44056128      -0.38251110
N       -4.07243028      -3.30711359       0.83728729
C       -4.80175986      -4.45696835       1.02709298
C       -5.56185746      -4.90495779       2.11934297
C       -6.20107287      -6.15158869       2.02535203
C       -6.08056855      -6.91908122       0.84958468
C       -5.32119353      -6.48874707      -0.24691744
C       -4.70613931      -5.25605988      -0.09711248
O       -3.90781665      -4.62041776      -0.99715691
N       -6.98318324      -6.70766976       3.05754706
C       -7.20603131      -6.20940899       4.32935598
O       -6.72297392      -5.17898892       4.78453627
C       -8.09221463      -7.05203539       5.11189663
C       -8.56175316      -6.92362968       6.40589343
C       -9.40635321      -8.03425251       6.64740702
C       -9.40028251      -8.77809861       5.49055206
Br     -10.34675156     -10.36445643       5.22868835
O       -8.60588800      -8.19588697       4.55276254
H        0.00392464      -0.19128514      -2.72639217
H       -1.44098984      -1.59384476      -4.14442015
H       -1.92750139      -1.74735119       0.78925405
H       -5.62843748      -4.26999393       2.99250916
H       -6.57733784      -7.88525541       0.77230538
H       -5.21507021      -7.07524962      -1.15037725
H       -7.43629240      -7.59603678       2.86842732
H       -8.31770041      -6.11450604       7.08227199
H       -9.95094520      -8.25912339       7.55394330
C       -0.88164269       0.88164269       0.88164269
C       -0.85219540       0.72330984       2.26206534
C       -1.66913045       1.52321851       3.05957617
C       -2.50592154       2.49079338       2.48292891
Cl      -3.51903150       3.36572975       3.58159027
C       -2.52226009       2.67911300       1.08884146
C       -1.70705856       1.84365784       0.29784587
C       -3.32036392       3.68740201       0.39182742
N       -3.72151570       3.69014784      -0.86940697
C       -4.34173510       4.90806155      -1.01816142
C       -4.97123848       5.50071408      -2.12448028
C       -5.51816487       6.78540098      -1.97625632
C       -5.43748768       7.44732604      -0.73474863
C       -4.80769758       6.87194745       0.37721301
C       -4.27904309       5.60742901       0.17283956
O       -3.60996777       4.83994820       1.07547534
N       -6.16622800       7.48265867      -3.01558073
C       -6.31983675       7.10416264      -4.33791507
O       -5.88125721       6.07513738      -4.83896801
C       -7.07007391       8.07557425      -5.11329477
C       -7.43844339       8.08684187      -6.44579585
C       -8.17189214       9.27938181      -6.65807525
C       -8.20515035       9.92882242      -5.44614372
Br      -9.04519459      11.56375942      -5.12643438
O       -7.53901410       9.21184766      -4.50184933
H       -0.20896196      -0.02023135       2.72502207
H       -1.65489364       1.38467277       4.13968834
H       -1.71458717       1.95772593      -0.78671456
H       -5.01339493       4.94265636      -3.05012903
H       -5.86309168       8.44276675      -0.61557056
H       -4.73251437       7.37622363       1.33195908
H       -6.56378218       8.38853852      -2.78841885
H       -7.20181571       7.31466645      -7.16654770
H       -8.61996882       9.61806835      -7.58191188
C        0.88164269      -0.88164269       0.88164269
C        0.67912728      -2.25644311       0.90200018
C        1.47966387      -3.05342123       1.71884003
C        2.49153151      -2.48246144       2.50565088
Cl       3.36391997      -3.57655138       3.52588017
C        2.72400716      -1.09539534       2.47081204
C        1.88781186      -0.30371775       1.65703266
C        3.77907518      -0.40672893       3.21378923
N        3.83447890       0.86573729       3.57351496
C        5.07595223       0.99430993       4.14999293
C        5.72320167       2.10005230       4.72432290
C        7.01966704       1.92747909       5.23512159
C        7.63927576       0.66322219       5.17401152
C        7.00909595      -0.44872680       4.59903530
C        5.73513628      -0.22014164       4.10403374
O        4.91835490      -1.11797911       3.48905731
N        7.76991142       2.96348409       5.82687862
C        7.43834962       4.30157949       5.94931419
O        6.41189087       4.82173005       5.52726576
C        8.45748764       5.06822378       6.64308953
C        8.52258059       6.41057699       6.96748581
C        9.74437731       6.60699210       7.65581350
C       10.35614142       5.37626745       7.70795508
Br      12.00662163       5.03023060       8.50612860
O        9.58860052       4.43526725       7.09567916
H       -0.09908056      -2.71501512       0.29781812
H        1.30684816      -4.12838187       1.74402472
H        2.03609703       0.77627011       1.62577163
H        5.19617626       3.04419127       4.75393726
H        8.64376601       0.52523864       5.57176050
H        7.48040836      -1.42122610       4.53906261
H        8.68062790       2.71965181       6.20292577
H        7.76616869       7.14821435       6.73198012
H       10.12629667       7.53297789       8.06280652
