198
Properties=species:S:1:pos:R:3 pbc="F F F"
C       12.44465443       8.57445324      -4.61458740
O       11.07628189       8.20546395      -4.71287625
C       10.21651660       9.32916502      -4.55352142
C        8.78657459       8.87173298      -4.72284650
C        8.36045104       8.38846025      -5.98417766
C        9.25734890       8.30991805      -7.11017592
N        9.99120645       8.31560124      -7.99494862
C        7.03433522       8.01852298      -6.14222056
O        6.63151839       7.42201893      -7.31280195
C        5.23414770       7.48160748      -7.56432938
C        4.17052376       6.55349874      -6.92706436
O        3.04962636       6.48884668      -7.44158772
N        4.59110183       5.84294370      -5.81934670
N        3.62575970       5.16579956      -5.00662883
C        4.24083831       4.24371127      -4.25305472
H        5.27308884       3.92397892      -4.36238758
C        3.40025194       3.40395122      -3.40207498
C        3.14648482       3.76921391      -2.07770488
C        2.34276855       2.96290808      -1.26892154
C        1.79273117       1.79273117      -1.79273117
C        2.03476492       1.42237685      -3.11479067
C        2.83972669       2.23133545      -3.91796553
N        6.12928397       8.12149579      -5.15574727
C        6.52905062       8.51255685      -3.92600882
C        5.45862460       8.45029736      -2.87440140
C        7.84818243       8.89756811      -3.66680683
H       13.05669916       7.70555393      -4.87003411
H       12.67745236       8.87829386      -3.58962682
H       12.68265222       9.38569537      -5.30993521
H       10.44088676      10.09239812      -5.30998094
H       10.41312485       9.78997035      -3.58322855
H        5.15258751       7.26004365      -8.63698599
H        4.87586146       8.51381021      -7.45311559
H        5.40582657       6.18540813      -5.31904398
H        3.56554184       4.69457209      -1.69320998
H        2.14783585       3.26366042      -0.24521865
H        1.59915573       0.52294348      -3.53647224
H        3.02132622       1.97282686      -4.95838835
H        5.28295997       9.43867817      -2.44023872
H        5.73383904       7.74116960      -2.08726781
H        4.51171305       8.10720538      -3.30522949
C        8.21763325       9.30308951      -2.33539462
C        8.52704832       9.64271369      -1.22033689
Br       9.02734631      10.19185726       0.58261715
C       -5.70583378      -6.91690568     -13.01095561
O       -5.83283817      -6.50429896     -11.65748496
C       -6.96657137      -5.66386531     -11.46876636
C       -7.06763216      -5.31012323     -10.00339868
C       -7.33678971      -6.33391159      -9.06238765
C       -7.50613349      -7.70847872      -9.46283067
N       -7.68800114      -8.78183879      -9.83191638
C       -7.47706542      -5.99096177      -7.72705157
O       -7.60327833      -6.98080014      -6.78226081
C       -8.17027977      -6.56119977      -5.54860503
C       -7.40970011      -5.82039965      -4.42098709
O       -7.90686691      -5.78211133      -3.29108251
N       -6.19582449      -5.27109315      -4.78647459
N       -5.54255449      -4.35175583      -3.90387777
C       -4.24866356      -4.25038123      -4.23855952
H       -3.72571854      -4.89104669      -4.94269010
C       -3.40419770      -3.40072690      -3.40135352
C       -3.20431793      -2.05794620      -3.73113949
C       -2.39616853      -1.25067743      -2.92775221
C       -1.79273117      -1.79273117      -1.79273117
C       -1.99067261      -3.12985481      -1.45140502
C       -2.79824163      -3.93213890      -2.25864714
N       -7.39234123      -4.72422371      -7.28996208
C       -7.06643360      -3.74241191      -8.15877079
C       -6.86064136      -2.39540234      -7.52727968
C       -6.89639796      -3.99198402      -9.52417538
H       -4.90277469      -7.65582266     -13.07368985
H       -5.44456027      -6.06074463     -13.64006814
H       -6.63234461      -7.37702300     -13.36891520
H       -7.88319575      -6.18381615     -11.77625391
H       -6.87322349      -4.79263596     -12.12046430
H       -8.47857466      -7.50066238      -5.07038011
H       -9.10198618      -6.00925995      -5.73154113
H       -6.02975122      -5.10588011      -5.77464736
H       -3.69922546      -1.64753697      -4.60656149
H       -2.25695287      -0.20793882      -3.19182323
H       -1.53898082      -3.55703100      -0.56255964
H       -2.98457855      -4.97094319      -1.99701968
H       -7.55977422      -1.66236506      -7.93973759
H       -5.83147457      -2.05391062      -7.67689125
H       -7.03391779      -2.44351816      -6.44671196
C       -6.54675315      -2.90625086     -10.40311338
C       -6.25392562      -1.99694933     -11.13922395
Br      -5.78044827      -0.52668567     -12.32945248
C       -7.35386959       5.36303033      12.91679515
O       -7.20672690       5.28177499      11.50612019
C       -8.39914758       4.82070949      10.87934596
C       -8.18651725       4.81106643       9.38357040
C       -7.98831739       6.03888844       8.70588312
C       -7.97239377       7.29908895       9.40596015
N       -8.02144174       8.28454178       9.99577279
C       -7.84423576       6.02314966       7.32769334
O       -7.51700611       7.18261829       6.66671488
C       -7.81776671       7.18448787       5.27782998
C       -6.95797964       6.51725492       4.17585230
O       -7.14213728       6.83991018       2.99801330
N       -6.01847334       5.60949573       4.62542316
N       -5.35986279       4.75168244       3.68664285
C       -4.24569384       4.25234087       4.23956959
H       -3.80423210       4.57833767       5.17688556
C       -3.40416625       3.40149950       3.40061239
C       -3.57416237       2.01482809       3.40441316
C       -2.76706876       1.20654127       2.60098813
C       -1.79273117       1.79273117       1.79273117
C       -1.61906324       3.17590678       1.77696241
C       -2.42762269       3.97855272       2.58285227
N       -7.90860939       4.89415233       6.60376531
C       -8.02596642       3.70593351       7.23571637
C       -7.94195463       2.50930430       6.33206444
C       -8.16874609       3.61967783       8.62413345
H       -6.46162615       5.83963623      13.33102482
H       -7.44452575       4.35896732      13.34187997
H       -8.22782501       5.96488019      13.18557761
H       -9.23850731       5.48675376      11.11800475
H       -8.65726795       3.84137316      11.28768264
H       -7.79368632       8.24869385       5.00723698
H       -8.85713787       6.86779166       5.11785773
H       -6.15155353       5.20940783       5.54931732
H       -4.35193112       1.57759568       4.02379711
H       -2.91625486       0.13224633       2.60821374
H       -0.87520301       3.64290716       1.14046128
H       -2.32435873       5.06085593       2.56732677
H       -8.85811396       1.91462256       6.38914034
H       -7.07857347       1.88956608       6.59413690
H       -7.81553744       2.81950399       5.28910648
C       -8.28746163       2.32512851       9.24352725
C       -8.38688589       1.24094345       9.76226956
Br      -8.54764651      -0.51209208      10.60103200
C       12.43078830      -8.60173059       4.60117618
O       11.06405859      -8.22762861       4.70293489
C       10.19983976      -9.34886981       4.55049347
C        8.77209682      -8.88586425       4.72319300
C        8.35206090      -8.39672380       5.98430425
C        9.25315054      -8.31739671       7.10689563
N        9.99006710      -8.32256390       7.98912531
C        7.02779923      -8.02161352       6.14566601
O        6.63114684      -7.41964006       7.31555237
C        5.23446366      -7.47347660       7.57214430
C        4.17185635      -6.54388348       6.93534702
O        3.05299298      -6.47353115       7.45353663
N        4.59103468      -5.83865708       5.82370047
N        3.62522292      -5.16097866       5.01198651
C        4.24087095      -4.24366875       4.25306460
H        5.27460242      -3.92716241       4.35769050
C        3.40024543      -3.40394483       3.40208786
C        3.14058934      -3.77292322       2.07989106
C        2.33686440      -2.96663503       1.27109873
C        1.79273117      -1.79273117       1.79273117
C        2.04066368      -1.41862831       3.11264045
C        2.84560532      -2.22759308       3.91582928
N        6.11895827      -8.12485725       5.16271151
C        6.51306853      -8.52158530       3.93296246
C        5.43920212      -8.45924813       2.88487312
C        7.82994083      -8.91209681       3.67051973
H       13.04673881      -7.73408938       4.85145901
H       12.65894983      -8.90994441       3.57647879
H       12.66838860      -9.41137525       5.29851895
H       10.42419283     -10.11024594       5.30882705
H       10.39145697      -9.81373003       3.58113675
H        5.15741835      -7.24790049       8.64429832
H        4.87220399      -8.50480322       7.46578004
H        5.40281259      -6.18570047       5.32176562
H        3.55508137      -4.70106974       1.69717280
H        2.13731562      -3.27026355       0.24913575
H        1.60965930      -0.51621920       3.53269296
H        3.03173252      -1.96610312       4.95470578
H        5.25858721      -9.44851378       2.45477586
H        5.71413239      -7.75382680       2.09431726
H        4.49499872      -8.11135749       3.31779170
C        8.19333053      -9.32353282       2.33925404
C        8.49766940      -9.66811047       1.22431902
Br       8.98975963     -10.22526340      -0.57843660
C       -0.00445707       0.01189536      -1.78238275
H       -0.66409135       0.67374010      -2.43557963
H        0.65740317      -0.63156657      -2.45157240
C       -0.90989263      -0.90692880      -0.91072765
C        0.90977584       0.90977584      -0.90977584
C       -0.00465871       1.77757030       0.00794375
H       -0.66225468       2.44313916      -0.64384735
H        0.64322798       2.43503045       0.67728295
C       -1.78241447       0.00034974      -0.00472694
H       -2.45427497      -0.65498947       0.64260836
H       -2.43311707       0.67328779      -0.65473579
C       -0.91132561       0.90220522       0.91563759
C       -0.01476271      -0.02253852       1.78660255
H       -0.67934791      -0.69751639       2.42135241
H        0.63392994       0.61504881       2.47327442
C        0.01484550      -1.77751727      -0.01636693
H        0.67870853      -2.42144646      -0.68295456
H       -0.62264859      -2.45592969       0.64226336
C        1.78714474       0.01002794       0.00389507
H        2.44202412       0.67113390       0.66197326
H        2.45385902      -0.65136977      -0.64189061
C        0.91606151      -0.90478549       0.90901405
