105
Properties=species:S:1:pos:R:3 pbc="F F F"
C        0.00000000       0.00000000       0.00000000
C        0.87791190       0.87791190      -0.87791190
C        2.07814485       0.40169991      -1.38266150
C        2.86230382       1.24075356      -2.17672645
C        2.41690801       2.53016085      -2.44488310
N        1.24178672       3.00274150      -1.97392715
C        0.50301865       2.17170590      -1.19662728
N        3.11442823       3.45100517      -3.22887167
C        4.37640478       3.31929014      -3.75192201
O        5.16053957       2.39915542      -3.54999521
C        4.85440760       4.45140976      -4.57955740
C        6.12769384       4.95946259      -4.27278484
C        6.66688278       5.99184566      -5.03660455
C        5.95591922       6.51919597      -6.11204605
C        4.69359301       6.00863324      -6.42560306
C        4.13868223       4.97340160      -5.66398308
Cl       2.59900515       4.36740641      -6.15544487
H        2.41621471      -0.60892317      -1.17209095
H        3.79434275       0.85792484      -2.57559454
H       -0.42615414       2.59811009      -0.82954097
H        2.58883580       4.30202303      -3.38002738
H        6.69212483       4.53717672      -3.44287894
H        6.37819707       7.31723647      -6.71861340
H        4.15336984       6.41445213      -7.27859070
C        7.97103625       6.51259845      -4.71785655
C        9.06326477       6.94872891      -4.45090511
Br      10.82930591       7.65391497      -4.01926719
C       -0.87791190      -0.87791190      -0.87791190
C       -0.53770125      -2.19883275      -1.12597226
C       -1.36322231      -2.97098289      -1.94557864
C       -2.50756078      -2.39685266      -2.48753851
N       -2.86101163      -1.11601529      -2.24142844
C       -2.03728195      -0.38373052      -1.45033935
N       -3.40592806      -3.07442669      -3.31395032
C       -3.27385431      -4.33608491      -3.83767771
O       -2.29509072      -5.06819230      -3.74640718
C       -4.40813497      -4.81600545      -4.66123433
C       -4.08737722      -5.35380318      -5.91876088
C       -5.09388050      -5.87002633      -6.73142616
C       -6.41877948      -5.86680939      -6.30157237
C       -6.73911675      -5.34182584      -5.04688673
C       -5.73759774      -4.81683173      -4.22163745
Cl      -6.21572169      -4.23920459      -2.66693016
H        0.35583730      -2.64080371      -0.69441608
H       -1.09574796      -4.00538756      -2.12672661
H       -2.35351560       0.64320789      -1.29118921
H       -4.21981752      -2.51588643      -3.53518226
H       -3.05012747      -5.37251373      -6.24953929
H       -7.20637685      -6.27981997      -6.92785012
H       -7.77431114      -5.36011201      -4.71198952
C       -4.76238466      -6.41789231      -8.02121428
C       -4.48475689      -6.87673006      -9.10141182
Br      -4.03585628      -7.61863190     -10.84799990
C       -0.87791190       0.87791190       0.87791190
C       -2.15801528       0.47666131       1.22782967
C       -2.93832541       1.31438514       2.02707329
C       -2.40969011       2.52675838       2.45550346
N       -1.15804316       2.92386163       2.13655058
C       -0.42364662       2.09697393       1.35073128
N       -3.09597822       3.43815700       3.26016985
C       -4.40894455       3.38281125       3.65586113
O       -5.24752622       2.56327315       3.29889084
C       -4.86328649       4.47884076       4.54324750
C       -6.05199395       5.13147698       4.17647034
C       -6.56960555       6.14005658       4.98567086
C       -5.92164880       6.50078832       6.16472413
C       -4.74467852       5.84612104       6.53702976
C       -4.21193783       4.83301750       5.73111159
Cl      -2.78535706       4.04158547       6.29491390
H       -2.56138289      -0.47460607       0.89260567
H       -3.93418832       0.98927402       2.30439979
H        0.57013670       2.46278890       1.10884471
H       -2.51492854       4.21838506       3.53757261
H       -6.56901040       4.83941189       3.26375819
H       -6.32874699       7.27954409       6.80575586
H       -4.25531741       6.12216131       7.46893395
C       -7.78666123       6.80929126       4.60553875
C       -8.80594537       7.36977530       4.28717812
Br     -10.45404160       8.27603058       3.77241589
C        0.87791190      -0.87791190       0.87791190
C        0.52679213      -2.19264146       1.14307267
C        1.35279787      -2.96485771       1.96212825
C        2.50848604      -2.39706911       2.48639681
N        2.87245485      -1.12253566       2.22346486
C        2.04812728      -0.38990743       1.43331712
N        3.40836775      -3.07540230       3.31053502
C        3.26881708      -4.33020690       3.84859295
O        2.28172725      -5.05305784       3.77490511
C        4.40657900      -4.81337411       4.66542165
C        4.09334810      -5.33494128       5.93165189
C        5.10286237      -5.85319847       6.73927215
C        6.42321307      -5.86806630       6.29588188
C        6.73592183      -5.35927855       5.03262893
C        5.73135098      -4.83243152       4.21228441
Cl       6.19926833      -4.27570405       2.64688406
H       -0.37563045      -2.62974698       0.72526597
H        1.07664535      -3.99453713       2.15667965
H        2.37318486       0.63202768       1.26033974
H        4.23016869      -2.52306768       3.51764984
H        3.05943417      -5.33955055       6.27319577
H        7.21297429      -6.28276614       6.91830650
H        7.76735973      -5.39168299       4.68736995
C        4.77912488      -6.38439197       8.03797439
C        4.50799474      -6.82926652       9.12563752
Br       4.06960022      -7.54859105      10.88429680
