118
Properties=species:S:1:pos:R:3 pbc="F F F"
C        1.78781592       1.78781592      -1.78781592
C        2.98804887       1.31160394      -2.29256552
C        3.77220785       2.15065759      -3.08663048
C        3.32681203       3.44006487      -3.35478713
N        2.15169074       3.91264552      -2.88383118
C        1.41292268       3.08160992      -2.10653130
N        4.02433225       4.36090919      -4.13877569
C        5.28630881       4.22919417      -4.66182603
O        6.07044359       3.30905945      -4.45989924
C        5.76431162       5.36131379      -5.48946142
C        7.03759787       5.86936662      -5.18268886
C        7.57678681       6.90174968      -5.94650858
Br       9.28805161       7.58506337      -5.52825854
C        6.86582325       7.42910000      -7.02195007
C        5.60349704       6.91853727      -7.33550708
C        5.04858626       5.88330563      -6.57388711
Cl       3.50890917       5.27731043      -7.06534890
H        3.32611873       0.30098086      -2.08199498
H        4.70424678       1.76782886      -3.48549857
H        0.48374988       3.50801412      -1.73944499
H        3.49873982       5.21192706      -4.28993140
H        7.60202885       5.44708074      -4.35278297
H        7.28810109       8.22714050      -7.62851742
H        5.06327387       7.32435616      -8.18849472
C       -1.78781592      -1.78781592      -1.78781592
C       -1.39833833      -3.07707165      -2.11680834
C       -2.22608579      -3.84962613      -2.93378399
C       -3.42169884      -3.30796144      -3.39200374
N       -3.82259001      -2.05925923      -3.06631820
C       -2.99616091      -1.32521919      -2.27968380
N       -4.32692355      -3.98944994      -4.20764365
C       -4.16155213      -5.21688212      -4.79889476
O       -3.14600044      -5.90308246      -4.79031938
C       -5.31132619      -5.71300516      -5.59075547
C       -5.02824501      -6.17428425      -6.88712409
C       -6.04828787      -6.70080740      -7.67594980
Br      -5.66425546      -7.31656542      -9.42055264
C       -7.34893243      -6.78354056      -7.18440033
C       -7.63112997      -6.33489066      -5.89152076
C       -6.61585019      -5.80045815      -5.08947065
Cl      -7.04308310      -5.32126968      -3.48721573
H       -0.46464662      -3.49410262      -1.75034532
H       -1.91938384      -4.85980036      -3.17839000
H       -3.35224538      -0.32387137      -2.05509224
H       -5.17623392      -3.46210497      -4.36225939
H       -4.00893451      -6.12593881      -7.26701923
H       -8.14621920      -7.20504478      -7.79249503
H       -8.64643934      -6.42023867      -5.50944674
C       -1.78781592       1.78781592       1.78781592
C       -2.97948683       1.30569550       2.30703599
C       -3.76403684       2.14483099       3.10062808
C       -3.32755393       3.44029911       3.35381099
N       -2.16067065       3.91886566       2.86863113
C       -1.42143354       3.08750267       2.09212769
N       -4.02626787       4.36187691       4.13587236
C       -5.28250900       4.22385547       4.67096454
O       -6.06033953       3.29529354       4.48376921
C       -5.76317939       5.35895945       5.49294799
C       -7.04341659       5.85336189       5.19287486
C       -7.58495217       6.88765689       5.95243601
Br      -9.30561446       7.55257310       5.54318596
C       -6.86936705       7.43041241       7.01709385
C       -5.60000894       6.93346486       7.32406759
C       -5.04270907       5.89647579       6.56659413
Cl      -3.49366277       5.30803168       7.04987406
H       -3.31057505       0.29041344       2.10810607
H       -4.68925453       1.75747496       3.51084472
H       -0.49918646       3.51868199       1.71334055
H       -3.50679745       5.21866305       4.27513778
H       -7.61127976       5.41905334       4.37155945
H       -7.29331973       8.23002364       7.62041564
H       -5.05601040       7.35129968       8.16881466
C        1.78781592      -1.78781592       1.78781592
C        1.40208669      -3.07984273       2.11028891
C        2.22966109      -3.85235612       2.92747871
C        3.42137129      -3.30784758       3.39244516
N        3.81865895      -2.05634229       3.07316620
C        2.99243515      -1.32245575       2.28617300
N        4.32607250      -3.98899077       4.20895387
C        4.16318863      -5.21934684       4.79479354
O        3.15035632      -5.90944083       4.77960512
C        5.31180623      -5.71408669       5.58919391
C        5.02549856      -6.18150204       6.88265275
C        6.04451701      -6.70713270       7.67339537
Br       5.65612306      -7.33116065       9.41408981
C        7.34736973      -6.78290870       7.18659488
C        7.63282939      -6.32813936       5.89657264
C        6.61859444      -5.79452952       5.09265503
Cl       7.05016790      -5.30745561       3.49394500
H        0.47145303      -3.49906107       1.73858046
H        1.92594719      -4.86465626       3.16697076
H        3.34548759      -0.31886832       2.06685308
H        5.17271808      -3.45896270       4.36891749
H        4.00454239      -6.13858790       7.25876226
H        8.14392740      -7.20368223       7.79614938
H        8.64993696      -6.40806254       5.51812524
C       -0.00445707       0.01189536      -1.78238275
H       -0.66409135       0.67374010      -2.43557963
H        0.65740317      -0.63156657      -2.45157240
C       -0.90989263      -0.90692880      -0.91072765
C        0.90977584       0.90977584      -0.90977584
C       -0.00465871       1.77757030       0.00794375
H       -0.66225468       2.44313916      -0.64384735
H        0.64322798       2.43503045       0.67728295
C       -1.78241447       0.00034974      -0.00472694
H       -2.45427497      -0.65498947       0.64260836
H       -2.43311707       0.67328779      -0.65473579
C       -0.91132561       0.90220522       0.91563759
C       -0.01476271      -0.02253852       1.78660255
H       -0.67934791      -0.69751639       2.42135241
H        0.63392994       0.61504881       2.47327442
C        0.01484550      -1.77751727      -0.01636693
H        0.67870853      -2.42144646      -0.68295456
H       -0.62264859      -2.45592969       0.64226336
C        1.78714474       0.01002794       0.00389507
H        2.44202412       0.67113390       0.66197326
H        2.45385902      -0.65136977      -0.64189061
C        0.91606151      -0.90478549       0.90901405
