126
Properties=species:S:1:pos:R:3 pbc="F F F"
C        1.78781592       1.78781592      -1.78781592
C        2.98804887       1.31160394      -2.29256552
C        3.77220785       2.15065759      -3.08663048
C        3.32681203       3.44006487      -3.35478713
N        2.15169074       3.91264552      -2.88383118
C        1.41292268       3.08160992      -2.10653130
N        4.02433225       4.36090919      -4.13877569
C        5.28630881       4.22919417      -4.66182603
O        6.07044359       3.30905945      -4.45989924
C        5.76431162       5.36131379      -5.48946142
C        7.03759787       5.86936662      -5.18268886
C        7.57678681       6.90174968      -5.94650858
C        6.86582325       7.42910000      -7.02195007
C        5.60349704       6.91853727      -7.33550708
C        5.04858626       5.88330563      -6.57388711
Cl       3.50890917       5.27731043      -7.06534890
H        3.32611873       0.30098086      -2.08199498
H        4.70424678       1.76782886      -3.48549857
H        0.48374988       3.50801412      -1.73944499
H        3.49873982       5.21192706      -4.28993140
H        7.60202885       5.44708074      -4.35278297
H        7.28810109       8.22714050      -7.62851742
H        5.06327387       7.32435616      -8.18849472
C        8.88094027       7.42250247      -5.62776058
C        9.97316879       7.85863293      -5.36080913
Br      11.73920994       8.56381899      -4.92917121
C       -1.78781592      -1.78781592      -1.78781592
C       -1.43289188      -3.10028485      -2.05904160
C       -2.25906767      -3.87252707      -2.87790118
C       -3.41871424      -3.30705484      -3.39589494
N       -3.78634928      -2.03482024      -3.12699793
C       -2.96181322      -1.30206664      -2.33718404
N       -4.31912457      -3.98566610      -4.21922647
C       -4.17697937      -5.23799090      -4.76235873
O       -3.18700831      -5.95750137      -4.69489260
C       -5.31594903      -5.72233253      -5.57680527
C       -5.00544395      -6.23815144      -6.84605796
C       -6.01600663      -6.75714849      -7.65188995
C       -7.33466940      -6.77844019      -7.20376373
C       -7.64461678      -6.27538782      -5.93753678
C       -6.63898228      -5.74786528      -5.11893143
Cl      -7.10320881      -5.19853718      -3.54982252
H       -0.52737034      -3.53561232      -1.64611190
H       -1.97988788      -4.90047941      -3.07720692
H       -3.28994795      -0.28195842      -2.15930262
H       -5.14367598      -3.43558246      -4.42133984
H       -3.97277211      -6.23775076      -7.19136969
H       -8.12518294      -7.19375283      -7.82482324
H       -8.67466464      -6.31280618      -5.58865393
C       -5.69507851      -7.28243734      -8.95368747
C       -5.42630121      -7.72236675     -10.04394289
Br      -4.99171106      -8.43369540     -11.80679369
C       -1.78781592       1.78781592       1.78781592
C       -3.05125908       1.36723067       2.17372858
C       -3.83240953       2.20533744       2.97174894
C       -3.32115510       3.43759900       3.36290993
N       -2.08541065       3.85410604       3.00865075
C       -1.35010299       3.02614927       2.22481163
N       -4.00980412       4.35145311       4.16275990
C       -5.31260276       4.27690854       4.58781771
O       -6.14064024       3.43228988       4.26647216
C       -5.77165212       5.38200376       5.46143095
C       -6.98168027       6.00126706       5.10670601
C       -7.50373436       7.01592409       5.90538662
C       -6.83892724       7.41568093       7.06226514
C       -5.64047006       6.79425867       7.42281266
C       -5.10312658       5.77547078       6.62718163
Cl      -3.64816608       5.02676564       7.17663678
H       -3.44097452       0.40062002       1.86750003
H       -4.81492349       1.86530111       3.27734961
H       -0.36979765       3.40759280       1.95381854
H       -3.44001450       5.14961191       4.41097187
H       -7.51145654       5.67867186       4.21176415
H       -7.24910903       8.19932261       7.69532737
H       -5.13758413       7.10066612       8.33787450
C       -8.74273903       7.65088991       5.53757438
C       -9.78040544       8.18267378       5.22953164
Br     -11.45822426       9.04252333       4.73145256
C        1.78781592      -1.78781592       1.78781592
C        1.42590549      -3.09599019       2.07032265
C        2.25239501      -3.86828416       2.88881674
C        3.41931173      -3.30721368       3.39513862
N        3.79367731      -2.03934242       3.11514771
C        2.96875842      -1.30635071       2.32595478
N        4.32069354      -3.98635437       4.21696924
C        4.17380172      -5.23399863       4.76952865
O        3.17857084      -5.94721593       4.71361552
C        5.31498051      -5.72055653       5.57954978
C        5.00962362      -6.22569462       6.85433510
C        6.02210939      -6.74609344       7.65684224
C        7.33752888      -6.77934754       7.19999690
C        7.64226262      -6.28695124       5.92832753
C        6.63467559      -5.75814681       5.11295659
Cl       7.09193879      -5.22256390       3.53706582
H        0.51469163      -3.52793773       1.66646521
H        1.96765437      -4.89295315       3.09696668
H        3.30254422      -0.28971320       2.13895157
H        5.15028416      -3.44052700       4.40978712
H        3.97934386      -6.21596309       7.20658560
H        8.12942083      -7.19581896       7.81851922
H        8.66964489      -6.33370502       5.57277484
C        5.70648688      -7.26041108       8.96430536
C        5.44215303      -7.69115210      10.05930572
Br       5.01474755      -8.38762391      11.82982868
C       -0.00445707       0.01189536      -1.78238275
H       -0.66409135       0.67374010      -2.43557963
H        0.65740317      -0.63156657      -2.45157240
C       -0.90989263      -0.90692880      -0.91072765
C        0.90977584       0.90977584      -0.90977584
C       -0.00465871       1.77757030       0.00794375
H       -0.66225468       2.44313916      -0.64384735
H        0.64322798       2.43503045       0.67728295
C       -1.78241447       0.00034974      -0.00472694
H       -2.45427497      -0.65498947       0.64260836
H       -2.43311707       0.67328779      -0.65473579
C       -0.91132561       0.90220522       0.91563759
C       -0.01476271      -0.02253852       1.78660255
H       -0.67934791      -0.69751639       2.42135241
H        0.63392994       0.61504881       2.47327442
C        0.01484550      -1.77751727      -0.01636693
H        0.67870853      -2.42144646      -0.68295456
H       -0.62264859      -2.45592969       0.64226336
C        1.78714474       0.01002794       0.00389507
H        2.44202412       0.67113390       0.66197326
H        2.45385902      -0.65136977      -0.64189061
C        0.91606151      -0.90478549       0.90901405
