185
Properties=species:S:1:pos:R:3 pbc="F F F"
C        0.00000000       0.00000000       0.00000000
C        0.88127251       0.88127251      -0.88127251
C        2.21354458       0.54228398      -1.08807743
C        3.02235851       1.35924021      -1.88648206
C        2.51715153       2.52065137      -2.50214308
C        1.16116357       2.82820433      -2.28030559
C        0.35021387       2.02217543      -1.47250145
C        3.38131782       3.38828299      -3.33681664
C        3.25014696       4.78798200      -3.31973150
C        4.07286176       5.63799596      -4.08403836
C        3.88711445       7.03048563      -4.03451043
C        4.69526857       7.89216282      -4.77427682
C        5.70392242       7.37265527      -5.57349197
C        5.89779610       5.99124078      -5.63802776
C        5.09079209       5.09160002      -4.89902951
C        5.22156117       3.68122234      -4.92828445
C        4.37783807       2.85309966      -4.16374399
C        6.26926197       3.01658292      -5.74836909
O        7.44354215       3.34813203      -5.63164877
N        5.78333461       2.03891344      -6.60146304
N        6.63851874       1.36036259      -7.42299113
C        6.10606394       0.50536316      -8.23526031
C        4.62789025       0.14169156      -8.39912230
O        3.72212050       0.60653457      -7.73666127
N        4.58370049      -0.78277327      -9.41880266
C        5.86436483      -1.04314107      -9.90010815
C        6.21631127      -1.90224695     -10.91868256
C        7.57844409      -2.00077229     -11.23187242
C        8.54073171      -1.24850919     -10.52458175
Br      10.36721740      -1.42105827     -10.98551851
C        8.17261225      -0.37989332      -9.49712367
C        6.82536249      -0.30108564      -9.21286230
H        2.63862312      -0.34694803      -0.63009523
H        4.06764887       1.08019652      -2.00623690
H        0.71076209       3.70406267      -2.74337325
H       -0.68974543       2.29601354      -1.31558268
H        2.49849525       5.24137662      -2.67404184
H        3.10392240       7.45980520      -3.41262431
H        4.53920238       8.96634187      -4.72147274
H        6.34615500       8.03672966      -6.14623393
H        6.70269483       5.62069861      -6.27175892
H        4.51949141       1.77464161      -4.20993318
H        4.77924565       1.86261752      -6.67477510
H        3.72722328      -1.20008465      -9.75296056
H        5.47875942      -2.48040314     -11.46503202
H        7.89191258      -2.66759230     -12.03326195
H        8.89595189       0.21020395      -8.94435278
C       -0.88127251      -0.88127251      -0.88127251
C       -0.42552076      -2.12991657      -1.28846866
C       -1.23081044      -2.93037470      -2.10689564
C       -2.50752658      -2.50775131      -2.52466809
C       -2.94199092      -1.24265965      -2.08502291
C       -2.13617630      -0.43186343      -1.27685102
C       -3.35089766      -3.35454175      -3.40097805
C       -4.15169076      -2.79442327      -4.41174642
C       -4.94449108      -3.57616060      -5.27424440
C       -5.73386662      -2.95845167      -6.25979223
C       -6.51888298      -3.71169988      -7.13112534
C       -6.52365551      -5.09585291      -7.03056124
C       -5.74933028      -5.72453528      -6.05319908
C       -4.94360243      -4.98479344      -5.15302575
C       -4.14641947      -5.55474406      -4.12990442
C       -3.37226008      -4.74967047      -3.27275117
C       -4.07468705      -7.02709593      -3.93243100
O       -3.79035801      -7.76027266      -4.87269227
N       -4.34850270      -7.43750562      -2.63770277
N       -4.33206464      -8.76690732      -2.32290050
C       -4.65703979      -9.07957238      -1.11007525
C       -5.05758830      -8.14874742       0.03763162
O       -5.09490262      -6.93677363      -0.03364008
N       -5.34706728      -8.97400691       1.10134430
C       -5.16258250     -10.30902010       0.75027069
C       -5.35997422     -11.41764988       1.54487723
C       -5.10912554     -12.67068586       0.97026720
C       -4.67022081     -12.77983681      -0.36674666
Br      -4.34311057     -14.49562292      -1.09294414
C       -4.47642979     -11.65080168      -1.16261113
C       -4.73389585     -10.43151039      -0.57173291
H        0.55397497      -2.49034655      -0.98539875
H       -0.83329880      -3.89081610      -2.42996738
H       -3.92616360      -0.86983492      -2.36219949
H       -2.50049277       0.54329358      -0.96465160
H       -4.14608761      -1.71402879      -4.55379732
H       -5.74344797      -1.87463526      -6.35826868
H       -7.12068156      -3.21730595      -7.88902948
H       -7.12443199      -5.69275035      -7.71193624
H       -5.77430430      -6.81271010      -6.00813796
H       -2.76764007      -5.23069548      -2.50573065
H       -4.63033896      -6.76153950      -1.92475980
H       -5.64940110      -8.63295306       2.00225497
H       -5.69877069     -11.33683666       2.57221905
H       -5.25770009     -13.56815519       1.56827306
H       -4.14384021     -11.71329574      -2.19337267
C       -0.88127251       0.88127251       0.88127251
C       -0.52146292       2.20275937       1.11968371
C       -1.32501525       3.00463015       1.93843538
C       -2.50593806       2.50953011       2.52447781
C       -2.84601267       1.17038820       2.25327262
C       -2.03990211       0.35939621       1.44559243
C       -3.34656706       3.35970918       3.40014121
C       -3.98621584       2.83483606       4.53680856
C       -4.77131281       3.62392418       5.39965909
C       -5.39604457       3.04048207       6.51558387
C       -6.16964356       3.80301213       7.38905252
C       -6.32763983       5.16260960       7.15982023
C       -5.71818030       5.75635213       6.05253222
C       -4.92818945       5.00614622       5.14708594
C       -4.29429836       5.53913151       3.99763809
C       -3.52473114       4.72573985       3.14421073
C       -4.39482122       6.98318257       3.65621019
O       -4.10105957       7.83355488       4.48870849
N       -4.83032431       7.22927161       2.36411517
N       -4.98177610       8.51439300       1.92570336
C       -5.45007655       8.66740098       0.72920988
C       -5.85788186       7.58884850      -0.27802626
O       -5.76220114       6.39273025      -0.08961505
N       -6.33027378       8.26822362      -1.37876751
C       -6.25330563       9.64388808      -1.17586180
C       -6.63865642      10.64045691      -2.04636646
C       -6.46644188      11.96441908      -1.62131675
C       -5.91748517      12.25268129      -0.35336218
Br      -5.70358739      14.05774857       0.17034168
C       -5.53346114      11.23570057       0.52068090
C       -5.71726361       9.94283759       0.07703794
H        0.38242009       2.62024877       0.68394164
H       -1.00083712       4.02654109       2.12670408
H       -3.75567347       0.73749623       2.66502831
H       -2.32866131      -0.67283404       1.26602353
H       -3.85505673       1.78038842       4.77846857
H       -5.28366203       1.97669102       6.71599887
H       -6.64286784       3.33565434       8.24849480
H       -6.92043434       5.76791956       7.84076469
H       -5.86020726       6.82675913       5.90818597
H       -3.04818145       5.17917874       2.27670600
H       -5.10618652       6.45939832       1.75105342
H       -6.67890412       7.80850043      -2.20730537
H       -7.06231753      10.42184146      -3.02077068
H       -6.76303049      12.77692846      -2.28237673
H       -5.11372073      11.43594929       1.50083860
C        0.88127251      -0.88127251       0.88127251
C        2.20124804      -0.51874965       1.12390831
C        3.01045772      -1.33547744       1.92214562
C        2.51754424      -2.52032576       2.50207597
C        1.17350267      -2.85160405       2.24456677
C        0.36259274      -2.04564080       1.43665721
C        3.38240859      -3.38731910       3.33668976
C        3.28187602      -4.78878233       3.28720211
C        4.10641445      -5.63752289       4.05095874
C        3.95186029      -7.03223300       3.96801722
C        4.76261507      -7.89240936       4.70668377
C        5.74270410      -7.36907783       5.53828773
C        5.90530287      -5.98559013       5.63617165
C        5.09486187      -5.08745979       4.89909996
C        5.19450513      -3.67559398       4.96096885
C        4.34944553      -2.84917361       4.19606258
C        6.21004909      -3.00682222       5.81734267
O        7.39341750      -3.31088521       5.71902023
N        5.68520948      -2.05828462       6.68021700
N        6.50799382      -1.37970720       7.53417143
C        5.94015897      -0.55388554       8.35264290
C        4.45134608      -0.22515433       8.49220370
O        3.57002417      -0.69462443       7.80066774
N        4.36567074       0.67594138       9.53000053
C        5.62995864       0.95286278      10.04423605
C        5.94167306       1.79702443      11.08809824
C        7.29443881       1.91752818      11.43263358
C        8.28747397       1.20121288      10.73054319
Br      10.09966040       1.40232971      11.23434695
C        7.95998694       0.34739561       9.67725127
C        6.62106046       0.24629050       9.36236919
H        2.61661351       0.38894644       0.69410325
H        4.04671619      -1.03705728       2.07030882
H        0.73242964      -3.74657747       2.67919090
H       -0.66766414      -2.33794278       1.25157215
H        2.55400025      -5.24391450       2.61599897
H        3.19143581      -7.46448151       3.32043460
H        4.63092587      -8.96825618       4.62783494
H        6.38687669      -8.03164206       6.11059984
H        6.68844274      -5.61188920       6.29482042
H        4.46677587      -1.76921151       4.26807882
H        4.67622360      -1.90487033       6.73554433
H        3.49351387       1.06774920       9.85433452
H        5.18043084       2.34753587      11.63049334
H        7.57643358       2.57336730      12.25451594
H        8.70741693      -0.21521318       9.12787850
