193
Properties=species:S:1:pos:R:3 pbc="F F F"
C        0.00000000       0.00000000       0.00000000
C        0.88127251       0.88127251      -0.88127251
C        2.21354458       0.54228398      -1.08807743
C        3.02235851       1.35924021      -1.88648206
C        2.51715153       2.52065137      -2.50214308
C        1.16116357       2.82820433      -2.28030559
C        0.35021387       2.02217543      -1.47250145
C        3.38131782       3.38828299      -3.33681664
C        3.25014696       4.78798200      -3.31973150
C        4.07286176       5.63799596      -4.08403836
C        3.88711445       7.03048563      -4.03451043
C        4.69526857       7.89216282      -4.77427682
C        5.70392242       7.37265527      -5.57349197
C        5.89779610       5.99124078      -5.63802776
C        5.09079209       5.09160002      -4.89902951
C        5.22156117       3.68122234      -4.92828445
C        4.37783807       2.85309966      -4.16374399
C        6.26926197       3.01658292      -5.74836909
O        7.44354215       3.34813203      -5.63164877
N        5.78333461       2.03891344      -6.60146304
N        6.63851874       1.36036259      -7.42299113
C        6.10606394       0.50536316      -8.23526031
C        4.62789025       0.14169156      -8.39912230
O        3.72212050       0.60653457      -7.73666127
N        4.58370049      -0.78277327      -9.41880266
C        5.86436483      -1.04314107      -9.90010815
C        6.21631127      -1.90224695     -10.91868256
C        7.57844409      -2.00077229     -11.23187242
C        8.54073171      -1.24850919     -10.52458175
C        8.17261225      -0.37989332      -9.49712367
C        6.82536249      -0.30108564      -9.21286230
H        2.63862312      -0.34694803      -0.63009523
H        4.06764887       1.08019652      -2.00623690
H        0.71076209       3.70406267      -2.74337325
H       -0.68974543       2.29601354      -1.31558268
H        2.49849525       5.24137662      -2.67404184
H        3.10392240       7.45980520      -3.41262431
H        4.53920238       8.96634187      -4.72147274
H        6.34615500       8.03672966      -6.14623393
H        6.70269483       5.62069861      -6.27175892
H        4.51949141       1.77464161      -4.20993318
H        4.77924565       1.86261752      -6.67477510
H        3.72722328      -1.20008465      -9.75296056
H        5.47875942      -2.48040314     -11.46503202
H        7.89191258      -2.66759230     -12.03326195
H        8.89595189       0.21020395      -8.94435278
C        9.93113649      -1.37986148     -10.87546797
C       11.09560048      -1.48986902     -11.16933519
Br      12.97844028      -1.66774191     -11.64449362
C       -0.88127251      -0.88127251      -0.88127251
C       -0.52360294      -2.20393356      -1.11636949
C       -1.32712202      -3.00583434      -1.93512442
C       -2.50590863      -2.50956668      -2.52447066
C       -2.84387304      -1.16922480      -2.25657565
C       -2.03775594      -0.35822973      -1.44890507
C       -3.34648747      -3.35981487      -3.40011512
C       -3.98285874      -2.83592726      -4.53907446
C       -4.76781042      -3.62516883      -5.40191682
C       -5.38919000      -3.04270090      -6.52021961
C       -6.16257041      -3.80542812      -7.39370967
C       -6.32370111      -5.16425663      -7.16211193
C       -5.71759702      -5.75701190      -6.05245572
C       -4.92791213      -5.00657796      -5.14693153
C       -4.29733970      -5.53854114      -3.99518711
C       -3.52785117      -4.72498413      -3.14184641
C       -4.40138490      -6.98171469      -3.65111439
O       -4.10766291      -7.83430549      -4.48135455
N       -4.83991724      -7.22439465      -2.35939921
N       -4.99476853      -8.50834740      -1.91875653
C       -5.46572606      -8.65807075      -0.72289061
C       -5.87338511      -7.57673113       0.28141213
O       -5.77497281      -6.38117787       0.09083434
N       -6.34928438      -8.25300050       1.38255500
C       -6.27463204      -9.62921171       1.18251184
C       -6.66366305     -10.62329944       2.05421562
C       -6.49322504     -11.94843463       1.63211547
C       -5.94234175     -12.24027968       0.36581716
C       -5.55459023     -11.22578451      -0.50946786
C       -5.73671414      -9.93168886      -0.06873615
H        0.37859419      -2.62234181      -0.67802271
H       -1.00459127      -4.02875149      -2.12073954
H       -3.75186480      -0.73535532      -2.67097789
H       -2.32483039       0.67491974      -1.27194014
H       -3.84914291      -1.78221905      -4.78255176
H       -5.27431347      -1.97953093      -6.72250752
H       -6.63317745      -3.33883628      -8.25500326
H       -6.91634668      -5.76974052      -7.84303139
H       -5.86202046      -6.82685007      -5.90628183
H       -3.05390716      -5.17764777      -2.27251127
H       -5.11546649      -6.45277093      -1.74840084
H       -6.69863810      -7.79095704       2.20949595
H       -7.08881045     -10.40192707       3.02734922
H       -6.79271836     -12.75905187       2.29418801
H       -5.13331593     -11.42879385      -1.48839884
C       -5.78144037     -13.61548204      -0.02982057
C       -5.64668546     -14.76721402      -0.36116717
Br      -5.42879817     -16.62946722      -0.89692660
C       -0.88127251       0.88127251       0.88127251
C       -0.49752996       2.18850912       1.15786692
C       -1.30146788       2.99004059       1.97657230
C       -2.50628210       2.50911334       2.52455054
C       -2.86994416       1.18451288       2.21521645
C       -2.06390691       0.37355852       1.40742531
C       -3.34749941       3.35850343       3.40041461
C       -4.02458883       2.82310381       4.51016782
C       -4.81137648       3.61044974       5.37306986
C       -5.47439247       3.01663389       6.46108416
C       -6.25052549       3.77693450       7.33424821
C       -6.37276470       5.14458232       7.13272265
C       -5.72498031       5.74884964       6.05323469
C       -4.93145594       5.00120728       5.14875840
C       -4.25964712       5.54513275       4.02628809
C       -3.48914090       4.73364037       3.17190045
C       -4.31998378       6.99838611       3.71584409
O       -4.02639944       7.82296583       4.57395767
N       -4.72017618       7.28323651       2.42029841
N       -4.83275231       8.58097811       2.00814203
C       -5.26999704       8.77140639       0.80528398
C       -5.67867307       7.72528497      -0.23525393
O       -5.61412423       6.52337274      -0.07218063
N       -6.11041894       8.43976126      -1.33045031
C       -6.00734751       9.80841740      -1.09443300
C       -6.35026876      10.83277940      -1.95030129
C       -6.15824241      12.14260762      -1.49130582
C       -5.63214294      12.38977755      -0.20511621
C       -5.29108559      11.34496530       0.65379171
C       -5.49357227      10.06690174       0.17666514
H        0.42520869       2.59484400       0.75213501
H       -0.95889524       3.99979277       2.19539429
H       -3.79825324       0.76345241       2.59649235
H       -2.37150890      -0.64751322       1.19785511
H       -3.92262817       1.76078564       4.73049990
H       -5.39046365       1.94633002       6.63955825
H       -6.75364202       3.30141517       8.17195980
H       -6.96729713       5.74791303       7.81390843
H       -5.83967386       6.82518988       5.93028862
H       -2.98282762       5.19535225       2.32588633
H       -4.99909221       6.53379371       1.78375234
H       -6.45019165       8.00679789      -2.17689035
H       -6.75629838      10.64578238      -2.93869246
H       -6.42136111      12.97628505      -2.14006394
H       -4.88951743      11.51356599       1.64742520
C       -5.44777143      13.75052330       0.22844825
C       -5.29336030      14.89014787       0.59155848
Br      -5.04369055      16.73282441       1.17867702
C        0.88127251      -0.88127251       0.88127251
C        2.12733126      -0.42302232       1.29355241
C        2.93836226      -1.23852959       2.09118893
C        2.51929565      -2.51868299       2.50196734
C        1.24755309      -2.94671992       2.07540048
C        0.43687626      -2.14102068       1.26699381
C        3.38723947      -3.38249662       3.33668136
C        3.43871120      -4.77432824       3.14482102
C        4.27151748      -5.61648141       3.90689719
C        4.27196035      -7.00323659       3.67691357
C        5.09468408      -7.85539384       4.41163029
C        5.93182331      -7.33153424       5.38671211
C        5.93910536      -5.95669002       5.63126927
C        5.11257881      -5.06709374       4.90174906
C        5.05797107      -3.66633989       5.10675699
C        4.20728710      -2.84810278       4.33929183
C        5.91268694      -2.99772630       6.12380074
O        7.12530215      -3.17672484       6.12129596
N        5.21253816      -2.19830231       7.01287063
N        5.87561916      -1.53793437       8.00831893
C        5.14991023      -0.85942871       8.83734848
C        3.62842242      -0.68916281       8.85111888
O        2.87021324      -1.16499359       8.03010951
N        3.35149539       0.08650723       9.95474173
C        4.52570625       0.42639078      10.62201645
C        4.64758229       1.18259425      11.76775882
C        5.94174974       1.39369364      12.26148811
C        7.06599762       0.85161242      11.60241907
C        6.93040488       0.08534435      10.44478207
C        5.64511265      -0.10833864       9.98368787
H        2.48438076       0.55974029       0.99712985
H        3.91914608      -0.86067679       2.37425943
H        0.86326854      -3.91981786       2.37511161
H       -0.53511726      -2.50839433       0.94857373
H        2.82900220      -5.22359383       2.36131768
H        3.62540657      -7.43538695       2.91555840
H        5.08408462      -8.92472961       4.21820276
H        6.58470346      -7.98641221       5.95800292
H        6.61321608      -5.58151401       6.40042227
H        4.20388638      -1.77533552       4.52484431
H        4.19235882      -2.14749219       6.97678725
H        2.41648329       0.35817247      10.22178836
H        3.78521358       1.59909014      12.27726486
H        6.07483129       1.98382062      13.16657155
H        7.78102108      -0.34370442       9.92578312
C        8.37956701       1.09343935      12.14061532
C        9.47968137       1.29596940      12.59135468
Br      11.25847324       1.62344337      13.32016211
