186
Properties=species:S:1:pos:R:3 pbc="F F F"
C        1.79147194       1.79147194      -1.79147194
C        1.43674153       3.11941260      -2.01021470
C        2.24768135       3.92883244      -2.80638315
C        3.42491993       3.41740913      -3.36958099
N        4.19589520       4.28802674      -4.22080071
S        3.65418488       4.33034764      -5.84295172
O        3.83733745       3.01508235      -6.41162786
O        2.37285051       5.00157827      -5.84689963
C        4.76805337       5.40806653      -6.67122109
C        4.69489102       5.49493140      -8.08014347
C        5.51912403       6.35383675      -8.84257353
C        6.49041347       7.18722239      -8.26167053
Br       7.54789598       8.31152583      -9.34490026
C        6.61387832       7.14213922      -6.84800440
N        7.46682711       7.84843479      -6.08837092
S        7.18561122       7.43334535      -4.51494995
N        5.94998907       6.34002972      -4.70644151
C        5.72011156       6.23071108      -6.02816591
C        3.78411892       2.07318570      -3.15261384
C        2.94989228       1.26485357      -2.36052893
C        5.05313560       1.44591390      -3.64852725
O        5.12276366       0.22325245      -3.69420399
N        6.07705597       2.32621455      -3.94292514
C        7.38639195       2.02990078      -4.36233728
C        7.85762418       0.73997860      -4.60518327
C        9.18235562       0.53286189      -5.00752700
C       10.04834517       1.61528386      -5.17102602
Cl      11.67106144       1.28771355      -5.66076624
C        9.58193881       2.91039985      -4.93478249
Cl      10.58279466       4.30835960      -5.11281038
C        8.25679939       3.11273398      -4.53391892
H        0.52924582       3.53082970      -1.57417804
H        1.94155590       4.95655485      -2.99087712
H        4.23256195       5.25481723      -3.87491231
H        3.96242203       4.88126826      -8.61109285
H        5.38662280       6.36660348      -9.92575194
H        3.21956334       0.22600826      -2.17593867
H        5.84603014       3.31060825      -3.84947373
H        7.21744165      -0.13087589      -4.49485970
H        9.52711132      -0.48250799      -5.19001686
H        7.91286798       4.12481709      -4.34259909
C       -1.79147194      -1.79147194      -1.79147194
C       -2.78081157      -1.20801975      -2.57753752
C       -3.57933472      -2.01159896      -3.39196326
C       -3.37743824      -3.39791997      -3.43655185
N       -4.26438329      -4.17992427      -4.26041509
S       -5.73344656      -4.60196489      -3.49207281
O       -5.42408291      -5.46459448      -2.37537028
O       -6.49892400      -3.38429334      -3.33811108
C       -6.60365367      -5.57566114      -4.66802618
C       -7.78030919      -6.23864204      -4.25101465
C       -8.57437543      -7.01907684      -5.12208204
C       -8.25249069      -7.20999210      -6.47682359
Br      -9.36568523      -8.25997066      -7.57866618
C       -7.07834980      -6.57078917      -6.95488296
N       -6.58601534      -6.61407475      -8.20354274
S       -5.21810443      -5.68923699      -8.22656510
N       -5.17968711      -5.16618864      -6.65058454
C       -6.23331108      -5.72186784      -6.02380963
C       -2.37943357      -3.99098645      -2.63949844
C       -1.59207621      -3.17092807      -1.81227050
C       -2.03406790      -5.45042805      -2.66308080
O       -1.39878438      -5.91682432      -1.72461140
N       -2.40836451      -6.13254748      -3.80528367
C       -2.16580436      -7.47819353      -4.13463212
C       -1.52252337      -8.38622575      -3.29403693
C       -1.30902527      -9.70664662      -3.70707262
C       -1.73779162     -10.13109799      -4.96576543
Cl      -1.43461220     -11.77029009      -5.41463895
C       -2.38749015      -9.22871827      -5.81091274
Cl      -2.95246242      -9.66689898      -7.38460324
C       -2.59974176      -7.91027801      -5.39343252
H       -2.94408479      -0.13290520      -2.55726357
H       -4.36696661      -1.54329464      -3.97872661
H       -4.49418742      -3.71876373      -5.14934034
H       -8.10391049      -6.13928628      -3.21158637
H       -9.47447273      -7.48595900      -4.71854649
H       -0.81001460      -3.61405408      -1.19744158
H       -2.93074250      -5.58943443      -4.48593519
H       -1.17632278      -8.10044196      -2.30466072
H       -0.80414510     -10.39623328      -3.03424181
H       -3.09567577      -7.21769278      -6.06691561
C       -1.79147194       1.79147194       1.79147194
C       -1.43964181       3.12089863       2.00582839
C       -2.25061614       3.93027991       2.80200090
C       -3.42504445       3.41726468       3.36960093
N       -4.19607091       4.28809114       4.22056059
S       -3.65025000       4.33605844       5.84117581
O       -3.82848577       3.02181003       6.41375187
O       -2.37066680       5.01063196       5.84002965
C       -4.76476792       5.41303180       6.66954128
C       -4.68816344       5.50376566       8.07803679
C       -5.51264794       6.36250940       8.84037697
C       -6.48761987       7.19184282       8.25984369
Br      -7.54520982       8.31621305       9.34289921
C       -6.61464797       7.14274699       6.84662699
N       -7.47141368       7.84483272       6.08738642
S       -7.19321368       7.42636993       4.51432291
N       -5.95424630       6.33677987       4.70543413
C       -5.72064255       6.23151201       6.02683399
C       -3.78129598       2.07154832       3.15707416
C       -2.94702720       1.26332606       2.36492151
C       -5.04737450       1.44227066       3.65793159
O       -5.11369046       0.21955546       3.70697418
N       -6.07281984       2.32066734       3.95270849
C       -7.38028084       2.02204068       4.37630849
C       -7.84750909       0.73153411       4.62374286
C       -9.17064281       0.52201924       5.03008246
C      -10.03902710       1.60260537       5.19302257
Cl     -11.65960148       1.27208985       5.68784990
C       -9.57662106       2.89831039       4.95218970
Cl     -10.58065685       4.29411884       5.12918896
C       -8.25306302       3.10304764       4.54734163
H       -0.53436222       3.53353785       1.56635349
H       -1.94669589       4.95927437       2.98301761
H       -4.23616278       5.25387636       3.87225235
H       -3.95271418       4.89340080       8.60866816
H       -5.37735988       6.37844957       9.92316877
H       -3.21446451       0.22330346       2.18374229
H       -5.84460945       3.30541201       3.85609066
H       -7.20534424      -0.13793523       4.51401645
H       -9.51226951      -0.49376510       5.21611578
H       -7.91227502       4.11552003       4.35248911
C        1.79147194      -1.79147194       1.79147194
C        2.79364394      -1.21006691       2.56265798
C        3.59227029      -2.01349646       3.37713020
C        3.37780598      -3.39736348       3.43674060
N        4.26513820      -4.17996901       4.25961544
S        5.72283300      -4.62309670       3.48155455
O        5.39482514      -5.49319753       2.37602500
O        6.49820971      -3.41422869       3.30889001
C        6.59496511      -5.59391488       4.65846100
C        7.76134520      -6.27189511       4.23672557
C        8.55626871      -7.05160861       5.10765699
C        8.24545340      -7.22674619       6.46710679
Br       9.35913358      -8.27683688       7.56835161
C        7.08194285      -6.57199280       6.95008628
N        6.60107340      -6.59889469       8.20366475
S        5.24218007      -5.66096616       8.23076029
N        5.19374622      -5.15238813       6.65032594
C        6.23612563      -5.72387909       6.01898383
C        2.36677541      -3.98840297       2.65474008
C        1.57934724      -3.16872160       1.82720593
C        2.00796960      -5.44422224       2.69538491
O        1.35947701      -5.91336543       1.76737766
N        2.38665151      -6.11910889       3.84043525
C        2.13460609      -7.45924745       4.18477648
C        1.47489986      -8.36899322       3.35889298
C        1.25294328      -9.68339886       3.78640237
C        1.68961124     -10.10006325       5.04498055
Cl       1.37532969     -11.73202604       5.51218551
C        2.35572452      -9.19598755       5.87540908
Cl       2.93144116      -9.62471454       7.44780894
C        2.57637404      -7.88359224       5.44348600
H        2.96679862      -0.13678470       2.53067025
H        4.38978422      -1.54718856       3.95201509
H        4.50766902      -3.71268523       5.14193723
H        8.07600446      -6.18536652       3.19341216
H        9.44808284      -7.53076151       4.70013388
H        0.78737350      -3.61016954       1.22396722
H        2.92052639      -5.57460544       4.51098029
H        1.12204016      -8.08923909       2.37014621
H        0.73526436     -10.37445525       3.12490058
H        3.08514192      -7.18944668       6.10569557
C       -0.00445707       0.01189536      -1.78238275
H       -0.66409135       0.67374010      -2.43557963
H        0.65740317      -0.63156657      -2.45157240
C       -0.90989263      -0.90692880      -0.91072765
C        0.90977584       0.90977584      -0.90977584
C       -0.00465871       1.77757030       0.00794375
H       -0.66225468       2.44313916      -0.64384735
H        0.64322798       2.43503045       0.67728295
C       -1.78241447       0.00034974      -0.00472694
H       -2.45427497      -0.65498947       0.64260836
H       -2.43311707       0.67328779      -0.65473579
C       -0.91132561       0.90220522       0.91563759
C       -0.01476271      -0.02253852       1.78660255
H       -0.67934791      -0.69751639       2.42135241
H        0.63392994       0.61504881       2.47327442
C        0.01484550      -1.77751727      -0.01636693
H        0.67870853      -2.42144646      -0.68295456
H       -0.62264859      -2.45592969       0.64226336
C        1.78714474       0.01002794       0.00389507
H        2.44202412       0.67113390       0.66197326
H        2.45385902      -0.65136977      -0.64189061
C        0.91606151      -0.90478549       0.90901405
