157
Properties=species:S:1:pos:R:3 pbc="F F F"
C        0.00000000       0.00000000       0.00000000
C        0.88146252       0.88146252      -0.88146252
C        1.02945515       2.23103384      -0.58038981
C        1.84991534       3.03071345      -1.38008964
C        2.53389061       2.49619712      -2.48128178
N        3.31661312       3.39019403      -3.23393625
C        4.59348865       3.16563505      -3.29753880
C        5.44742305       3.94745348      -4.21434964
C        6.73664884       3.47249651      -4.46985727
C        7.52898003       4.12549052      -5.41445821
C        7.05671784       5.25241846      -6.08853049
C        5.77323312       5.73123967      -5.82289474
C        4.96832928       5.07326940      -4.89724857
O        3.70567347       5.56935126      -4.71943100
C        2.34355874       1.13428247      -2.80219969
C        1.53256001       0.32980851      -1.98154338
C        3.02321509       0.43660309      -3.92820569
O        3.40393544      -0.71914373      -3.74162461
C        3.30424633       1.06518733      -5.24397013
C        2.47110545       2.03495689      -5.80926451
C        2.83757677       2.65129000      -7.00933170
C        4.01798592       2.28403122      -7.65683774
C        4.82908806       1.28705258      -7.11957542
C        4.47014334       0.67324551      -5.91970035
H        0.51746322       2.67104612       0.27201072
H        1.96176919       4.08607584      -1.14033586
H        5.07449049       2.34946052      -2.72589927
H        7.10782723       2.58196745      -3.97044210
H        7.67242348       5.75706213      -6.82858498
H        5.39220780       6.60147356      -6.35067078
H        3.22547895       4.92788959      -4.14892872
H        1.41724345      -0.72906405      -2.20778598
H        1.55317229       2.34368117      -5.31763834
H        2.20978001       3.43157378      -7.43152884
H        4.30438775       2.77577546      -8.58371050
H        5.74346592       0.99265739      -7.62864595
H        5.11147750      -0.09971192      -5.50108157
C        8.84123553       3.61440586      -5.71508751
C        9.94024951       3.18637246      -5.96686454
Br      11.71726216       2.49427864      -6.37396672
C       -0.88146252      -0.88146252      -0.88146252
C       -0.36113647      -2.04762053      -1.43212179
C       -1.17587539      -2.85988088      -2.22496216
C       -2.51445603      -2.52394857      -2.47296491
N       -3.24226474      -3.39716111      -3.30131754
C       -4.27943086      -3.98702310      -2.79020854
C       -5.19523677      -4.76800086      -3.64598853
C       -6.44017483      -5.12073805      -3.11808975
C       -7.37069668      -5.76195440      -3.93627769
C       -7.06535537      -6.06956762      -5.26274381
C       -5.81716497      -5.72644651      -5.78375606
C       -4.89066209      -5.06775957      -4.98042559
O       -3.70505485      -4.72078911      -5.56861177
C       -3.02021647      -1.31666135      -1.94316307
C       -2.20121585      -0.51357244      -1.12912360
C       -4.42451500      -0.85178369      -2.11172519
O       -4.96836437      -0.30706822      -1.15098374
C       -5.21768395      -1.04319800      -3.35252183
C       -4.63697742      -1.05429655      -4.62405288
C       -5.42597236      -1.32675293      -5.74547319
C       -6.79404084      -1.56227057      -5.60254347
C       -7.38474329      -1.50887504      -4.34209774
C       -6.60048153      -1.24274346      -3.21986422
H        0.67104250      -2.33724168      -1.25029945
H       -0.76356067      -3.77088984      -2.65373039
H       -4.55065382      -3.87593337      -1.72326310
H       -6.70014760      -4.86546433      -2.09462485
H       -7.79301338      -6.56384120      -5.90121601
H       -5.57393490      -5.95170604      -6.81871120
H       -3.22334768      -4.15360774      -4.92534185
H       -2.60399686       0.39761939      -0.68958790
H       -3.57269274      -0.88397138      -4.75782770
H       -4.96977224      -1.37222579      -6.73088460
H       -7.40066830      -1.78611809      -6.47708731
H       -8.45229412      -1.68166872      -4.23080642
H       -7.06623510      -1.20959533      -2.23701672
C       -8.67155758      -6.08759947      -3.41157185
C       -9.76102858      -6.36032721      -2.97213072
Br     -11.52261105      -6.80130490      -2.26159157
C       -0.88146252       0.88146252       0.88146252
C       -0.96535126       0.62908897       2.24643857
C       -1.76040870       1.44808705       3.05222269
C       -2.47391732       2.52684297       2.51060923
N       -3.26140811       3.27587501       3.40346028
C       -2.96933487       4.53139412       3.55593350
C       -3.86050331       5.41991859       4.32880426
C       -3.67040836       6.79925317       4.20934109
C       -4.56329016       7.66746670       4.83817191
C       -5.62650508       7.17505054       5.59611118
C       -5.80704125       5.79721100       5.72311528
C       -4.93312013       4.92399666       5.08173047
O       -5.19569300       3.58747627       5.21128645
C       -2.41429885       2.74845905       1.11728300
C       -1.59624293       1.93316402       0.31450494
C       -3.10386664       3.86693542       0.41722181
O       -2.50567605       4.42402437      -0.50328409
C       -4.44870471       4.37453517       0.79016390
C       -5.44522116       3.54985498       1.32025070
C       -6.65985240       4.10558255       1.73276352
C       -6.89002607       5.47497412       1.59385469
C       -5.91648445       6.29348996       1.02574165
C       -4.70109343       5.74424960       0.61774617
H       -0.41686682      -0.19558852       2.69522033
H       -1.82286463       1.24586044       4.11945583
H       -2.09071896       4.99264424       3.06648709
H       -2.86158303       7.19627644       3.60237731
H       -6.32512518       7.85211564       6.08082977
H       -6.63845670       5.40390646       6.30198898
H       -4.58416164       3.11674944       4.60138618
H       -1.52097175       2.12898450      -0.75399088
H       -5.28408803       2.48329450       1.44710928
H       -7.42181628       3.47199076       2.17907558
H       -7.83201857       5.90380042       1.92805472
H       -6.09883602       7.35867441       0.90725882
H       -3.94158555       6.38983818       0.18142341
C       -4.39936524       9.08953727       4.68182639
C       -4.26207811      10.28052137       4.55088702
Br      -4.04009645      12.20624193       4.33916914
C        0.88146252      -0.88146252       0.88146252
C        2.26551193      -0.80649222       0.76887464
C        3.06888517      -1.60306647       1.58876680
C        2.50514543      -2.47602365       2.53020043
N        3.40060307      -3.24929989       3.29084044
C        3.39980063      -3.07918658       4.57767529
C        4.17414734      -3.98143905       5.45363977
C        3.90317281      -3.95155117       6.82427865
C        4.53710108      -4.86717667       7.66465100
C        5.44764976      -5.79419597       7.15582106
C        5.72492662      -5.81405841       5.78838252
C        5.08107195      -4.91787173       4.93990357
O        5.36563362      -5.02307481       3.60574729
C        1.09857612      -2.57446454       2.60700024
C        0.29537501      -1.75523458       1.79330231
C        0.37166182      -3.44317733       3.57318472
O       -0.65650741      -2.99887885       4.08404488
C        0.83508001      -4.79230441       3.98601936
C        1.54495485      -5.63985086       3.13052114
C        2.02905671      -6.86143531       3.60770646
C        1.78451074      -7.24828520       4.92605894
C        1.04003929      -6.42647371       5.76920307
C        0.55970401      -5.20439359       5.29899161
H        2.73052762      -0.13280823       0.05316277
H        4.15116881      -1.54082599       1.49618610
H        2.77760771      -2.30574807       5.06649451
H        3.17827291      -3.25163878       7.23032508
H        5.93664870      -6.51107297       7.81034891
H        6.42407297      -6.53942199       5.38085718
H        4.74218881      -4.42636886       3.13373960
H       -0.78890638      -1.80423186       1.88063990
H        1.75582693      -5.35470841       2.10395648
H        2.61270623      -7.50523305       2.95494335
H        2.17429093      -8.19406817       5.29551460
H        0.83984636      -6.73166432       6.79325857
H       -0.01495065      -4.56334327       5.96445453
C        4.22830393      -4.87127921       9.07114576
C        3.96968632      -4.87471508      10.24908511
Br       3.55152351      -4.88027059      12.15371342
