178
Properties=species:S:1:pos:R:3 pbc="F F F"
C        1.79136655       1.79136655      -1.79136655
C        1.93935917       3.14093786      -1.49029383
C        2.75981937       3.94061748      -2.28999367
C        3.44379463       3.40610114      -3.39118581
N        4.22651715       4.30009805      -4.14384027
C        5.50339267       4.07553908      -4.20744282
C        6.35732707       4.85735750      -5.12425366
C        7.64655286       4.38240053      -5.37976130
C        8.43888405       5.03539455      -6.32436224
C        7.96662187       6.16232248      -6.99843451
C        6.68313714       6.64114370      -6.73279877
C        5.87823331       5.98317342      -5.80715260
O        4.61557749       6.47925529      -5.62933502
C        3.25346277       2.04418649      -3.71210372
C        2.44246404       1.23971253      -2.89144740
C        3.93311911       1.34650712      -4.83810972
O        4.31383947       0.19076030      -4.65152864
C        4.21415035       1.97509135      -6.15387415
C        3.38100947       2.94486091      -6.71916853
C        3.74748080       3.56119403      -7.91923573
C        4.92788995       3.19393525      -8.56674176
C        5.73899209       2.19695660      -8.02947945
C        5.38004736       1.58314953      -6.82960438
H        1.42736725       3.58095015      -0.63789331
H        2.87167321       4.99597987      -2.05023989
H        5.98439452       3.25936455      -3.63580330
H        8.01773125       3.49187147      -4.88034613
H        8.58232750       6.66696615      -7.73848900
H        6.30211182       7.51137758      -7.26057481
H        4.13538298       5.83779362      -5.05883275
H        2.32714747       0.18083997      -3.11769000
H        2.46307632       3.25358520      -6.22754237
H        3.11968403       4.34147780      -8.34143287
H        5.21429177       3.68567948      -9.49361452
H        6.65336995       1.90256141      -8.53854998
H        6.02138152       0.81019210      -6.41098559
C        9.75113955       4.52430989      -6.62499153
C       10.85015353       4.09627648      -6.87676857
Br      12.62716618       3.40418267      -7.28387074
C       -1.79136655      -1.79136655      -1.79136655
C       -2.32829996      -2.96615539      -1.27613552
C       -3.14767346      -3.76173168      -2.08102538
C       -3.44477955      -3.39492313      -3.40137891
N       -4.26124340      -4.27561135      -4.13360072
C       -5.40292161      -3.82619873      -4.55725423
C       -6.22641030      -4.62748131      -5.48504663
C       -7.27930470      -3.98621383      -6.14319617
C       -8.00672475      -4.68450514      -7.10741095
C       -7.70731356      -6.01447198      -7.40559333
C       -6.66282877      -6.65573730      -6.73851354
C       -5.91850063      -5.95994963      -5.79010907
O       -4.88070943      -6.63539571      -5.20806266
C       -2.86070597      -2.22176205      -3.92728496
C       -2.05324649      -1.41453563      -3.10584186
C       -3.10805358      -1.70734396      -5.30233840
O       -3.21711503      -0.48993514      -5.44907823
C       -3.27133551      -2.57630083      -6.49547951
C       -2.61209482      -3.80147099      -6.63147311
C       -2.87617854      -4.61302165      -7.73871035
C       -3.77533015      -4.19327730      -8.71995951
C       -4.40134139      -2.95367533      -8.61041141
C       -4.14498516      -2.14307907      -7.50473705
H       -2.12142234      -3.27153132      -0.25325703
H       -3.56473344      -4.68010279      -1.67305674
H       -5.76799338      -2.81465485      -4.29691413
H       -7.50742196      -2.94394373      -5.93858316
H       -8.27069135      -6.55596501      -8.16112630
H       -6.41470078      -7.68780106      -6.97156237
H       -4.37808379      -5.97977705      -4.67414850
H       -1.63469854      -0.49014667      -3.50083223
H       -1.91630379      -4.15277782      -5.87512227
H       -2.39253959      -5.58223516      -7.82781995
H       -3.98640455      -4.83431520      -9.57286602
H       -5.09389303      -2.62101159      -9.37957671
H       -4.64257889      -1.17902770      -7.42095263
C       -9.06350345      -4.01571081      -7.82122671
C       -9.94855561      -3.45559557      -8.41904740
Br     -11.37961010      -2.54993659      -9.38567290
C       -1.79136655       1.79136655       1.79136655
C       -2.50478045       1.22412586       2.84168456
C       -3.29757747       2.03684793       3.65600511
C       -3.38424290       3.41921936       3.43761933
N       -4.22654869       4.14382542       4.30008136
C       -3.68445417       5.06369497       5.03822543
C       -4.52697590       5.98587824       5.82608410
C       -3.92459817       7.13184456       6.35227197
C       -4.71417873       8.07774033       7.00672178
C       -6.08782524       7.88286444       7.15668918
C       -6.68467208       6.73207621       6.64033132
C       -5.90763919       5.79330999       5.96761015
O       -6.56479812       4.71175351       5.44761617
C       -2.68861903       3.97799982       2.34313413
C       -1.87616468       3.15802873       1.53943056
C       -2.67726534       5.42929380       2.01117681
O       -1.61930846       5.91995962       1.61686032
C       -3.85199406       6.32435661       2.16676519
C       -5.16641105       5.87870365       1.99992422
C       -6.23161874       6.74984575       2.24644606
C       -5.98702129       8.06816334       2.63338232
C       -4.67831261       8.52878664       2.75832889
C       -3.61250848       7.66166053       2.51863227
H       -2.45041320       0.15630182       3.03949568
H       -3.85404650       1.58779477       4.47605170
H       -2.59116839       5.23313996       5.05525402
H       -2.86062330       7.30801740       6.22130815
H       -6.70320588       8.62307192       7.66150486
H       -7.75538940       6.57645489       6.74221992
H       -5.91431325       4.22141419       4.89628191
H       -1.30989969       3.59655204       0.71922572
H       -5.38038370       4.85424101       1.70957917
H       -7.25462302       6.39494024       2.15303144
H       -6.81970100       8.73787973       2.83600504
H       -4.48655642       9.55856177       3.04936314
H       -2.59241986       8.02514450       2.62499486
C       -4.10698268       9.28193756       7.51152073
C       -3.59845598      10.29045275       7.93428985
Br      -2.77621133      11.92113650       8.61787176
C        1.79136655      -1.79136655       1.79136655
C        2.36303453      -1.26357492       2.94398142
C        3.15584719      -2.07806962       3.75651371
C        3.38299458      -3.42372138       3.43436562
N        4.21315725      -4.15098948       4.30630875
C        3.69667300      -5.17426215       4.91543942
C        4.55076943      -6.09098628       5.69718252
C        4.01194425      -7.32472814       6.07204231
C        4.82651716      -8.25742699       6.71469668
C        6.16042543      -7.96497385       7.00197959
C        6.69252623      -6.72777444       6.63677894
C        5.89253927      -5.79949713       5.97652293
O        6.49097915      -4.62576230       5.60742635
C        2.83184498      -3.93772157       2.24018642
C        2.01800453      -3.11858593       1.43703351
C        2.97713016      -5.34968249       1.79092329
O        2.00295499      -5.88813873       1.26503468
C        4.21030147      -6.15593378       1.97688060
C        5.48897479      -5.59114539       1.96491875
C        6.60385768      -6.39071948       2.23333340
C        6.44694295      -7.75385982       2.48776419
C        5.17869819      -8.32930624       2.45742370
C        4.06302293      -7.53437596       2.19540239
H        2.19767629      -0.22568234       3.22285208
H        3.60110009      -1.65990595       4.65688693
H        2.62513563      -5.43342385       4.82100288
H        2.98220977      -7.57497527       5.83276380
H        6.79598114      -8.69440608       7.49739544
H        7.73316468      -6.49478386       6.84611567
H        5.84666118      -4.14308646       5.04226171
H        1.56210176      -3.52708444       0.53649125
H        5.63378759      -4.53081820       1.77959810
H        7.59534360      -5.94639935       2.26085175
H        7.31663888      -8.36859781       2.70834908
H        5.05635587      -9.39315077       2.64497469
H        3.07413681      -7.98812741       2.18029500
C        4.28985080      -9.54745903       7.06313114
C        3.84039272     -10.62786086       7.35494500
Br       3.11365703     -12.37477923       7.82678333
C       -0.00445707       0.01189536      -1.78238275
H       -0.66409135       0.67374010      -2.43557963
H        0.65740317      -0.63156657      -2.45157240
C       -0.90989263      -0.90692880      -0.91072765
C        0.90977584       0.90977584      -0.90977584
C       -0.00465871       1.77757030       0.00794375
H       -0.66225468       2.44313916      -0.64384735
H        0.64322798       2.43503045       0.67728295
C       -1.78241447       0.00034974      -0.00472694
H       -2.45427497      -0.65498947       0.64260836
H       -2.43311707       0.67328779      -0.65473579
C       -0.91132561       0.90220522       0.91563759
C       -0.01476271      -0.02253852       1.78660255
H       -0.67934791      -0.69751639       2.42135241
H        0.63392994       0.61504881       2.47327442
C        0.01484550      -1.77751727      -0.01636693
H        0.67870853      -2.42144646      -0.68295456
H       -0.62264859      -2.45592969       0.64226336
C        1.78714474       0.01002794       0.00389507
H        2.44202412       0.67113390       0.66197326
H        2.45385902      -0.65136977      -0.64189061
C        0.91606151      -0.90478549       0.90901405
