85
Properties=species:S:1:pos:R:3 pbc="F F F"
C        0.00000000       0.00000000       0.00000000
C        4.28028039      -0.82422099      -2.74578023
O        3.96176897       0.54763543      -2.93980795
C        2.85140206       1.04219213      -2.30946214
C        2.00490786       0.29158248      -1.49164635
C        0.88931103       0.88931103      -0.88931103
C        0.59489068       2.24639765      -1.08997653
O       -0.51637129       2.74048096      -0.46070150
C       -0.83719501       4.11140031      -0.65802015
C        1.44184281       2.99734620      -1.90716531
C        2.55734969       2.39943223      -2.50967649
H        5.18867457      -1.04020243      -3.31634956
H        3.48492359      -1.47183664      -3.12887399
H        4.49106489      -1.03482253      -1.69223193
H        2.18932998      -0.76143204      -1.30578882
H       -1.74969221       4.32545035      -0.09338840
H       -1.04203934       4.32115864      -1.71290650
H       -0.04568575       4.76096505      -0.27035165
H        1.25771656       4.05040606      -2.09248163
C        3.38877102       3.23089827      -3.34094226
C        4.08508640       3.92725108      -4.03712733
Br       5.21096946       5.05319469      -5.16279973
C       -1.59708256      -4.88954716       0.28479009
O       -2.17129309      -4.37032603      -0.90759324
C       -1.90223100      -3.06781157      -1.23301376
C       -1.10599974      -2.20983771      -0.47229923
C       -0.88931103      -0.88931103      -0.88931103
C       -1.46169211      -0.39743712      -2.07213563
O       -1.19370714       0.90558225      -2.39668628
C       -1.77126817       1.42603681      -3.58699409
C       -2.25732009      -1.25563183      -2.83340240
C       -2.47414900      -2.57615049      -2.41615892
H       -1.91461792      -5.93218888       0.38198510
H       -1.95881793      -4.34817091       1.16502790
H       -0.50348696      -4.87814599       0.23315867
H       -0.64159158      -2.54236943       0.45027425
H       -1.45970706       2.47079227      -3.68023176
H       -2.86479873       1.40849967      -3.53572675
H       -1.40638145       0.88979152      -4.46904102
H       -2.72116734      -0.92324343      -3.75619348
C       -3.30543296      -3.40752601      -3.24765258
C       -4.00163328      -4.10380301      -3.94402852
Br      -5.12733032      -5.22962403      -5.07000952
C       -4.90796737      -0.25146609       1.54533835
O       -4.38269661       0.92985098       2.13666477
C       -3.07436255       1.24481125       1.88388254
C       -2.21604101       0.48347178       1.08862389
C       -0.88931103       0.88931103       0.88931103
C       -0.39146158       2.06136377       1.47843950
O        0.91735783       2.37543844       1.22673056
C        1.44380750       3.55463441       1.82139854
C       -1.24999238       2.82326366       2.27309828
C       -2.57671805       2.41719127       2.47254908
H       -5.95466862      -0.34132206       1.85147514
H       -4.37905633      -1.14066824       1.90357285
H       -4.88504699      -0.18905834       0.45248564
H       -2.55305782      -0.43103538       0.61166431
H        2.49252272       3.64045263       1.52121663
H        1.41475604       3.49265310       2.91412875
H        0.92007664       4.44562526       1.46008233
H       -0.91311105       3.73799542       2.74949778
C       -3.40809148       3.24868584       3.30383424
C       -4.10436672       3.94506253       4.00003556
Br      -5.23018490       5.07104475       5.12573422
C        1.55420106       0.25723054       4.90486912
O        2.13697996      -0.92964597       4.38258642
C        1.88454181      -1.24438244       3.07413208
C        1.08930369      -0.48302963       2.21580336
C        0.88931103      -0.88931103       0.88931103
C        1.47734490      -2.06207572       0.39184424
O        1.22362576      -2.37745785      -0.91627245
C        1.80310227      -3.56653461      -1.43741143
C        2.27332601      -2.82311554       1.24991276
C        2.47307987      -2.41684604       2.57653250
H        1.86205759       0.34820506       5.95096918
H        0.46091039       0.20233654       4.88338709
H        1.91798115       1.14224103       4.37273417
H        0.61229798       0.43144752       2.55283630
H        1.48918296      -3.66128787      -2.48132429
H        1.44249130      -4.44983061      -0.90029611
H        2.89646179      -3.51138013      -1.42221097
H        2.75074693      -3.73718295       0.91267437
C        3.30458124      -3.24819997       3.40783034
C        4.00096364      -3.94445889       4.10404228
Br       5.12695509      -5.07025068       5.22975810
