98
Properties=species:S:1:pos:R:3 pbc="F F F"
C        5.19018442       0.08568304      -3.65568425
O        4.87167299       1.45753945      -3.84971198
C        3.76130609       1.95209615      -3.21936617
C        2.91481188       1.20148650      -2.40155037
C        1.79921505       1.79921505      -1.79921505
C        1.50479471       3.15630167      -1.99988056
O        0.39353274       3.65038498      -1.37060552
C        0.07270901       5.02130433      -1.56792417
C        2.35174683       3.90725022      -2.81706933
C        3.46725371       3.30933625      -3.41958051
Br       4.56613669       4.40827832      -4.51825788
H        6.09857860      -0.13029841      -4.22625359
H        4.39482761      -0.56193262      -4.03877802
H        5.40096891      -0.12491851      -2.60213595
H        3.09923400       0.14847198      -2.21569284
H       -0.83978818       5.23535438      -1.00329242
H       -0.13213532       5.23106267      -2.62281052
H        0.86421827       5.67086907      -1.18025568
H        2.16762058       4.96031009      -3.00238565
C       -5.79977074      -0.62567334      -2.50610762
O       -5.28044464      -1.81787089      -3.08060890
C       -3.97782923      -2.14311583      -2.81182335
C       -3.11984934      -1.38239081      -2.01560861
C       -1.79921505      -1.79921505      -1.79921505
C       -1.30723749      -2.98185883      -2.37188062
O       -0.00411750      -3.30623362      -2.10417212
C        0.51644112      -4.49635488      -2.68202375
C       -2.16543803      -3.74313623      -3.16749213
C       -3.48606436      -3.32608027      -3.38402584
Br      -4.58488674      -4.42505887      -4.48272729
H       -6.84248289      -0.52860153      -2.82344936
H       -5.25860548       0.25471786      -2.86778539
H       -5.78817502      -0.67748858      -1.41252276
H       -3.45245886      -0.45995272      -1.55098724
H        1.56126531      -4.58946797      -2.37065595
H        0.49870949      -4.44490477      -3.77554259
H       -0.01959235      -5.37855486      -2.31719581
H       -1.83297169      -4.66579203      -3.63155260
C       -0.65725233       5.81723711       2.45706227
O       -1.84261871       5.29413268       3.04217304
C       -2.15591209       3.98490686       2.79194945
C       -1.39447306       3.12653205       1.99684364
C       -1.79921505       1.79921505       1.79921505
C       -2.97049636       1.30095290       2.38952767
O       -3.28443761      -0.00793789       2.13802352
C       -4.47201030      -0.52990613       2.71983335
C       -3.73162103       2.15906896       3.18537640
C       -3.32689144       3.48651301       3.38276603
Br      -4.42568496       4.58523303       4.48175489
H       -0.56728665       6.86387967       2.76336745
H       -0.71360779       5.79418734       1.36387789
H        0.22897925       5.28680678       2.82035883
H       -0.48110833       3.46416004       1.51813046
H       -4.56576596      -1.57437492       2.40746757
H       -5.35652986       0.00551124       2.35969677
H       -4.41538569      -0.51313746       3.81309479
H       -4.64457518       1.82123664       3.66450451
C        0.64581725      -5.81104071       2.47469374
O        1.83495494      -5.29000270       3.05396678
C        2.15185228      -3.98271704       2.79819908
C        1.39062857      -3.12445815       2.00276204
C        1.79921505      -1.79921505       1.79921505
C        2.97420094      -1.30295311       2.38382289
O        3.29174061       0.00399095       2.12677358
C        4.48306942       0.52387397       2.70274207
C        3.73511372      -2.16094965       3.18000302
C        3.32653838      -3.48632065       3.38331144
Br       4.42533282      -4.58504001       4.48230006
H        0.55333212      -6.85631898       2.78488268
H        0.69851082      -5.79191107       1.38125112
H       -0.23735271      -5.27634613       2.83919293
H        0.47448569      -3.46058966       1.52832347
H        4.57931635       1.56694487       2.38648714
H        5.36452119      -0.01579096       2.34142573
H        4.43012838       0.51102654       3.79624118
H        4.65084812      -1.82461099       3.65485721
C       -0.00445707       0.01189536      -1.78238275
H       -0.66409135       0.67374010      -2.43557963
H        0.65740317      -0.63156657      -2.45157240
C       -0.90989263      -0.90692880      -0.91072765
C        0.90977584       0.90977584      -0.90977584
C       -0.00465871       1.77757030       0.00794375
H       -0.66225468       2.44313916      -0.64384735
H        0.64322798       2.43503045       0.67728295
C       -1.78241447       0.00034974      -0.00472694
H       -2.45427497      -0.65498947       0.64260836
H       -2.43311707       0.67328779      -0.65473579
C       -0.91132561       0.90220522       0.91563759
C       -0.01476271      -0.02253852       1.78660255
H       -0.67934791      -0.69751639       2.42135241
H        0.63392994       0.61504881       2.47327442
C        0.01484550      -1.77751727      -0.01636693
H        0.67870853      -2.42144646      -0.68295456
H       -0.62264859      -2.45592969       0.64226336
C        1.78714474       0.01002794       0.00389507
H        2.44202412       0.67113390       0.66197326
H        2.45385902      -0.65136977      -0.64189061
C        0.91606151      -0.90478549       0.90901405
