166
Properties=species:S:1:pos:R:3 pbc="F F F"
O        3.30930811       3.48476117      -9.72890037
C        3.45126549       3.74237864      -8.53131555
N        2.80843685       2.99131863      -7.57063172
N        3.00285764       3.20208007      -6.24273324
C        2.33108257       2.42496064      -5.45057491
C        2.47726849       2.53035877      -3.98323625
C        1.67089042       1.71767598      -3.18083092
C        1.79200680       1.79200680      -1.79200680
C        2.70730160       2.66139464      -1.19979657
C        3.51218341       3.47031502      -2.00094555
C        3.39642597       3.40499488      -3.38697933
O        4.22144598       4.22695663      -4.10297530
C        4.31286386       4.90580494      -8.02080913
N        5.03185160       5.54052039      -9.13700902
C        4.97470805       6.92640273      -9.29723770
C        5.19835274       7.45991794     -10.57513105
C        5.18860684       8.83937864     -10.80134029
C        4.98416540       9.70771964      -9.73545002
C        4.82235056       9.20754828      -8.44767010
C        4.84304588       7.82471377      -8.23106203
H        2.22166398       2.23229351      -7.90429141
H        1.63217343       1.66045502      -5.83611249
H        0.95319285       1.03402125      -3.62584305
H        2.80414373       2.71831711      -0.11765298
H        4.23138341       4.14917377      -1.54915470
H        4.03250685       4.07601984      -5.05317080
H        5.05176482       4.51946033      -7.31139432
H        3.63493044       5.59424493      -7.50529076
H        4.83249632       5.04550468     -10.01079229
H        5.37481247       6.79400175     -11.41713848
H        5.34449339       9.21696400     -11.80768234
H        4.68919403       9.87867222      -7.60364934
H        4.75703985       7.46918382      -7.20835594
C        4.95490525      11.12930992      -9.96310089
C        4.93039987      12.31989178     -10.15375850
Br       4.89077674      14.24496195     -10.46203572
O       -3.67968281      -3.12531903      -9.71796781
C       -3.73584403      -3.45743360      -8.53168205
N       -3.08024149      -2.72450140      -7.56564430
N       -3.18359367      -3.02030719      -6.24377008
C       -2.51057806      -2.25026717      -5.44577289
C       -2.56348750      -2.44599785      -3.98137816
C       -1.75769714      -1.63311393      -3.17858626
C       -1.79200680      -1.79200680      -1.79200680
C       -2.62059000      -2.74581763      -1.20208518
C       -3.42502499      -3.55493326      -2.00348573
C       -3.39538751      -3.40549449      -3.38751818
O       -4.21412183      -4.23356091      -4.10369517
C       -4.49931090      -4.69655889      -8.04360814
N       -5.24653331      -5.30934985      -9.15349786
C       -5.12159695      -6.67828779      -9.39846374
C       -5.39035464      -7.15184055     -10.69120653
C       -5.31692499      -8.51349683     -10.99890395
C       -5.00149739      -9.42643003      -9.99940764
C       -4.79191472      -8.99032473      -8.69532950
C       -4.87701463      -7.62541758      -8.39638947
H       -2.55760772      -1.91459566      -7.88604553
H       -1.87955916      -1.42535817      -5.82382361
H       -1.10695482      -0.88434989      -3.62175243
H       -2.64984149      -2.86877876      -0.12149357
H       -4.07713139      -4.29938515      -1.55319533
H       -4.09052045      -4.01881953      -5.05235751
H       -5.21534131      -4.39491368      -7.27236448
H       -3.75461490      -5.37138124      -7.60846999
H       -5.12725931      -4.75532706     -10.00620692
H       -5.65331896      -6.45151784     -11.48111589
H       -5.51078431      -8.84280478     -12.01555063
H       -4.57169942      -9.69851494      -7.90130123
H       -4.75060168      -7.32314502      -7.36083291
C       -4.90634861     -10.82883968     -10.31212778
C       -4.82666150     -12.00335776     -10.57403089
Br      -4.69781419     -13.90245416     -10.99750607
O       -8.22666071       6.94585581       1.35045313
C       -7.43015338       6.27940823       2.01539808
N       -6.48657505       5.48893789       1.39487425
N       -5.54825366       4.80213072       2.09728657
C       -4.72554647       4.09539454       1.38567712
C       -3.63769161       3.32647854       2.02669336
C       -2.83066657       2.52443937       1.21429138
C       -1.79200680       1.79200680       1.79200680
C       -1.54985823       1.85486786       3.16376672
C       -2.35426312       2.65628675       3.97289411
C       -3.39426882       3.38820020       3.40593116
O       -4.13573217       4.15148624       4.26415951
C       -7.43597305       6.25324175       3.55026312
N       -8.40448722       7.22821866       4.07667513
C       -9.34071384       6.82623558       5.03139905
C      -10.53361756       7.55556321       5.14422095
C      -11.50021761       7.22919579       6.09991237
C      -11.26671433       6.17975348       6.98086726
C      -10.06544392       5.48026800       6.93185704
C       -9.10054049       5.82147334       5.97680785
H       -6.49126142       5.48785295       0.37913453
H       -4.80251803       4.04181157       0.28441134
H       -3.00489786       2.46465186       0.14350742
H       -0.73917876       1.28634882       3.61458623
H       -2.17169723       2.71486294       5.04315171
H       -4.82331254       4.60560324       3.73278171
H       -6.44081223       6.52524349       3.91656375
H       -7.66607328       5.22380901       3.84458383
H       -8.84015510       7.74260168       3.30603651
H      -10.72473169       8.38927678       4.47194423
H      -12.42173219       7.80221993       6.14518761
H       -9.86171431       4.67618906       7.63361223
H       -8.15668263       5.28428051       5.99361648
C      -12.26499102       5.82585548       7.95646956
C      -13.10104776       5.52946591       8.77353648
Br     -14.45288078       5.05022904      10.09466460
O        8.13218045      -7.05996720       1.33082199
C        7.35810550      -6.36930624       1.99754794
N        6.41742857      -5.57344891       1.37950971
N        5.50254611      -4.85942865       2.08569619
C        4.67978923      -4.15082227       1.37600663
C        3.61574049      -3.35321632       2.02190670
C        2.80854252      -2.55126472       1.20959008
C        1.79200680      -1.79200680       1.79200680
C        1.57196093      -1.82808365       3.16844823
C        2.37649466      -2.62942525       3.97752407
C        3.39456540      -3.38800895       3.40582583
O        4.13763190      -4.14935724       4.26438877
C        7.39017535      -6.31785328       3.53144930
N        8.35114572      -7.30014220       4.05809309
C        9.30982185      -6.89822562       4.99030101
C       10.49222590      -7.64555037       5.09562546
C       11.48003234      -7.31972332       6.02957011
C       11.27877434      -6.25207136       6.89648936
C       10.08858566      -5.53338407       6.85559923
C        9.10224070      -5.87406282       5.92251816
H        6.40504520      -5.58924674       0.36395696
H        4.73910072      -4.11676752       0.27287270
H        2.96570207      -2.51213897       0.13521610
H        0.77849580      -1.23862791       3.62299012
H        2.21101401      -2.66720853       5.05148934
H        4.80856967      -4.62370478       3.72942304
H        6.39695351      -6.56697928       3.91868668
H        7.64219265      -5.28770873       3.80456475
H        8.76521938      -7.83445954       3.28911437
H       10.65818571      -8.49336835       4.43439863
H       12.39257233      -7.90734032       6.06922708
H        9.91001950      -4.71449258       7.54700352
H        8.16781524      -5.32086423       5.94590014
C       12.29903899      -5.89892487       7.84935220
C       13.15351064      -5.60316468       8.64737483
Br      14.53511902      -5.12494547       9.93770993
C       -0.00445707       0.01189536      -1.78238275
H       -0.66409135       0.67374010      -2.43557963
H        0.65740317      -0.63156657      -2.45157240
C       -0.90989263      -0.90692880      -0.91072765
C        0.90977584       0.90977584      -0.90977584
C       -0.00465871       1.77757030       0.00794375
H       -0.66225468       2.44313916      -0.64384735
H        0.64322798       2.43503045       0.67728295
C       -1.78241447       0.00034974      -0.00472694
H       -2.45427497      -0.65498947       0.64260836
H       -2.43311707       0.67328779      -0.65473579
C       -0.91132561       0.90220522       0.91563759
C       -0.01476271      -0.02253852       1.78660255
H       -0.67934791      -0.69751639       2.42135241
H        0.63392994       0.61504881       2.47327442
C        0.01484550      -1.77751727      -0.01636693
H        0.67870853      -2.42144646      -0.68295456
H       -0.62264859      -2.45592969       0.64226336
C        1.78714474       0.01002794       0.00389507
H        2.44202412       0.67113390       0.66197326
H        2.45385902      -0.65136977      -0.64189061
C        0.91606151      -0.90478549       0.90901405
