150
Properties=species:S:1:pos:R:3 pbc="F F F"
O        6.89025531       7.73694871      -5.24981951
C        6.24810056       7.13534557      -4.38684985
N        5.48058795       6.04804659      -4.74386104
N        4.72444525       5.36588573      -3.84667270
C        4.25431148       4.23343592      -4.26331986
C        3.39860682       3.39684606      -3.40012548
C        2.80061929       3.93402033      -2.25498382
C        1.99006801       3.12943022      -1.45153379
C        1.79165558       1.79165558      -1.79165558
C        2.39200316       1.25105645      -2.92991277
C        3.19445947       2.05699296      -3.74195447
C        6.28277626       7.49754790      -2.89721171
O        7.52634388       8.03275267      -2.45408234
C        8.46116938       7.13077471      -2.01233156
C        8.58540508       5.83021106      -2.51530283
C        9.58811481       4.97675725      -2.04499973
C       10.47970012       5.41371484      -1.06961843
C       10.37295111       6.70847996      -0.56508146
C        9.37318931       7.56484899      -1.03908041
Br       9.28049171       9.31300459      -0.29993896
H        5.49657360       5.78344972      -5.72357346
H        4.49277395       3.83578793      -5.26670422
H        2.95298678       4.97736461      -1.98761710
H        1.52087945       3.55457145      -0.56765804
H        2.24260406       0.20568733      -3.18916264
H        3.66318990       1.62564477      -4.62266316
H        5.97715719       6.66777032      -2.25065614
H        5.53286786       8.28587775      -2.76015268
H        7.93134802       5.45217059      -3.29255585
H        9.67701721       3.97221143      -2.45178176
H       11.26112339       4.75006992      -0.70853160
H       11.07433346       7.04452236       0.19404465
O       -6.86789022      -5.25758878      -7.75154453
C       -6.16076276      -4.41718958      -7.19234364
N       -5.62853449      -4.69246682      -5.95149426
N       -4.87146691      -3.79559977      -5.26993699
C       -4.24074045      -4.26803422      -4.24229259
C       -3.39780305      -3.40040469      -3.39737061
C       -3.51203402      -2.00784994      -3.46973948
C       -2.70970372      -1.20154408      -2.65978423
C       -1.79165558      -1.79165558      -1.79165558
C       -1.67074963      -3.18046448      -1.72175826
C       -2.48044906      -3.98999005      -2.52296780
C       -5.78708991      -3.06940507      -7.82104089
O       -5.67512748      -3.09716474      -9.24088666
C       -4.44139491      -3.40873568      -9.75414507
C       -3.53331552      -4.27031638      -9.12728706
C       -2.30780640      -4.57406019      -9.72800520
C       -1.97701834      -4.02331147     -10.96270359
C       -2.87437409      -3.16996488     -11.60217357
C       -4.10313953      -2.86980978     -11.00416939
Br      -5.27362206      -1.69186016     -11.92795304
H       -5.84065601      -5.60404484      -5.55889593
H       -4.28598391      -5.33853971      -3.97074248
H       -4.22778158      -1.54477417      -4.14541274
H       -2.80899224      -0.12018866      -2.71392804
H       -0.94877665      -3.63861719      -1.05006019
H       -2.37463378      -5.07028655      -2.46657750
H       -4.88595152      -2.62972320      -7.37990893
H       -6.61067982      -2.38573837      -7.58248009
H       -3.75518495      -4.74328682      -8.17760269
H       -1.61669796      -5.25180527      -9.23250717
H       -1.02563575      -4.26417314     -11.42991601
H       -2.61132917      -2.74586507     -12.56761692
O       -7.52973927       5.18068929       7.16659497
C       -6.90119375       4.31624843       6.55285381
N       -5.95256675       4.69283865       5.62709018
N       -5.25257460       3.78958026       4.89484882
C       -4.23478365       4.26543088       4.25085272
C       -3.39705052       3.40029372       3.39823412
C       -3.85408286       2.14110111       2.99443948
C       -3.05026523       1.33692314       2.18384365
C       -1.79165558       1.79165558       1.79165558
C       -1.33016721       3.04470056       2.19810460
C       -2.13720549       3.85624694       2.99995447
C       -7.07679379       2.81137592       6.78936615
O       -7.41936648       2.46564693       8.12816547
C       -6.37645319       2.23769592       8.99012655
C       -5.13962812       2.88780213       8.90348872
C       -4.13395186       2.63461186       9.84130807
C       -4.35342860       1.73188760      10.87771719
C       -5.58247688       1.08294675      10.98108890
C       -6.59115827       1.33982669      10.04613375
Br      -8.23816618       0.41261762      10.24265146
H       -5.80689735       5.69002649       5.50667295
H       -3.93687660       5.32679847       4.33159104
H       -4.83568761       1.78409123       3.29818965
H       -3.41422738       0.36298119       1.86590036
H       -0.34527598       3.39426975       1.89790830
H       -1.76678663       4.82767030       3.31704090
H       -6.21300625       2.22516012       6.45741729
H       -7.91854944       2.50225301       6.15809583
H       -4.92925734       3.61709127       8.12972585
H       -3.18157848       3.15395907       9.76547286
H       -3.57178519       1.53977318      11.60816654
H       -5.74851160       0.38169340      11.79460617
O        6.61573566      -7.89511263       5.36617525
C        5.94415729      -7.31567132       4.51046738
N        5.33810315      -6.11685584       4.81753659
N        4.55823581      -5.44827996       3.93048790
C        4.25748288      -4.23276003       4.26082435
C        3.39896114      -3.39671123       3.39990598
C        2.62196463      -3.97651425       2.39114457
C        1.81161458      -3.17112516       1.58829228
C        1.79165558      -1.79165558       1.79165558
C        2.57054760      -1.20944438       2.79298040
C        3.37374379      -2.01435663       3.60530648
C        5.77083746      -7.83029447       3.07640393
O        6.89405462      -8.54687166       2.57225261
C        7.85972844      -7.80786403       1.93668319
C        8.17340366      -6.48538116       2.27213415
C        9.19791286      -5.80501659       1.60694235
C        9.92250243      -6.43881940       0.60171156
C        9.62652174      -7.75773393       0.26225687
C        8.60504939      -8.44093743       0.93113189
Br       8.24961754     -10.23352401       0.41029371
H        5.49312901      -5.75676580       5.75370197
H        4.64869603      -3.76422673       5.18234334
H        2.63494213      -5.05232051       2.23070586
H        1.20326967      -3.62817101       0.81166826
H        2.55978217      -0.13280930       2.94486256
H        3.98191013      -1.55144987       4.37813784
H        5.47995852      -7.04170187       2.37392327
H        4.93331254      -8.53751508       3.10807066
H        7.65481080      -5.95729043       3.06397323
H        9.43531353      -4.78085754       1.88483933
H       10.72138524      -5.90949117       0.08884850
H       10.19825867      -8.24788134      -0.52132884
C       -0.00445707       0.01189536      -1.78238275
H       -0.66409135       0.67374010      -2.43557963
H        0.65740317      -0.63156657      -2.45157240
C       -0.90989263      -0.90692880      -0.91072765
C        0.90977584       0.90977584      -0.90977584
C       -0.00465871       1.77757030       0.00794375
H       -0.66225468       2.44313916      -0.64384735
H        0.64322798       2.43503045       0.67728295
C       -1.78241447       0.00034974      -0.00472694
H       -2.45427497      -0.65498947       0.64260836
H       -2.43311707       0.67328779      -0.65473579
C       -0.91132561       0.90220522       0.91563759
C       -0.01476271      -0.02253852       1.78660255
H       -0.67934791      -0.69751639       2.42135241
H        0.63392994       0.61504881       2.47327442
C        0.01484550      -1.77751727      -0.01636693
H        0.67870853      -2.42144646      -0.68295456
H       -0.62264859      -2.45592969       0.64226336
C        1.78714474       0.01002794       0.00389507
H        2.44202412       0.67113390       0.66197326
H        2.45385902      -0.65136977      -0.64189061
C        0.91606151      -0.90478549       0.90901405
