158
Properties=species:S:1:pos:R:3 pbc="F F F"
O        6.89025531       7.73694871      -5.24981951
C        6.24810056       7.13534557      -4.38684985
N        5.48058795       6.04804659      -4.74386104
N        4.72444525       5.36588573      -3.84667270
C        4.25431148       4.23343592      -4.26331986
C        3.39860682       3.39684606      -3.40012548
C        2.80061929       3.93402033      -2.25498382
C        1.99006801       3.12943022      -1.45153379
C        1.79165558       1.79165558      -1.79165558
C        2.39200316       1.25105645      -2.92991277
C        3.19445947       2.05699296      -3.74195447
C        6.28277626       7.49754790      -2.89721171
O        7.52634388       8.03275267      -2.45408234
C        8.46116938       7.13077471      -2.01233156
C        8.58540508       5.83021106      -2.51530283
C        9.58811481       4.97675725      -2.04499973
C       10.47970012       5.41371484      -1.06961843
C       10.37295111       6.70847996      -0.56508146
C        9.37318931       7.56484899      -1.03908041
H        5.49657360       5.78344972      -5.72357346
H        4.49277395       3.83578793      -5.26670422
H        2.95298678       4.97736461      -1.98761710
H        1.52087945       3.55457145      -0.56765804
H        2.24260406       0.20568733      -3.18916264
H        3.66318990       1.62564477      -4.62266316
H        5.97715719       6.66777032      -2.25065614
H        5.53286786       8.28587775      -2.76015268
H        7.93134802       5.45217059      -3.29255585
H        9.67701721       3.97221143      -2.45178176
H       11.26112339       4.75006992      -0.70853160
H       11.07433346       7.04452236       0.19404465
C        9.30294373       8.88958879      -0.47896431
C        9.24411306       9.99905837      -0.00986708
Br       9.14898885      11.79297684       0.74862346
O       -6.91122126      -5.24281950      -7.72298277
C       -6.20899412      -4.39990652      -7.16139535
N       -5.65037200      -4.68717438      -5.93494919
N       -4.89704506      -3.78904593      -5.25091268
C       -4.24029644      -4.26799913      -4.24277168
C       -3.39775053      -3.40041137      -3.39741645
C       -3.53726348      -2.00903673      -3.44332324
C       -2.73486785      -1.20286372      -2.63330045
C       -1.79165558      -1.79165558      -1.79165558
C       -1.64557778      -3.17912556      -1.74826903
C       -2.45513104      -3.98879777      -2.54947809
C       -5.86975316      -3.03510980      -7.77267290
O       -5.78229261      -3.03637750      -9.19450877
C       -4.55257273      -3.31731437      -9.73438856
C       -3.61887797      -4.17350220      -9.13853880
C       -2.39905089      -4.44524864      -9.76557226
C       -2.09956705      -3.86753558     -10.99593076
C       -3.02262085      -3.01917317     -11.60471851
C       -4.24568898      -2.75102471     -10.98040502
H       -5.83979092      -5.60898177      -5.55482409
H       -4.26227063      -5.34366352      -3.98933195
H       -4.27266154      -1.54701065      -4.09829630
H       -2.85374922      -0.12264611      -2.66671361
H       -0.90411105      -3.63605203      -1.09729095
H       -2.32970371      -5.06788090      -2.51391323
H       -4.96872934      -2.58734502      -7.33950930
H       -6.70070634      -2.37024057      -7.50795138
H       -3.81582703      -4.66662553      -8.19362190
H       -1.68774355      -5.11920072      -9.29406613
H       -1.15252335      -4.08354070     -11.48366085
H       -2.78394184      -2.57391007     -12.56695926
C       -5.16011613      -1.86215099     -11.64922971
C       -5.92594887      -1.11771924     -12.20937040
Br      -7.16423565       0.08596393     -13.11507051
O       -7.27065393       5.16874383       7.43762578
C       -6.61029122       4.30965489       6.85034987
N       -5.82841405       4.66972765       5.77435387
N       -5.10609635       3.76533007       5.06557726
C       -4.23688216       4.26703463       4.24715047
C       -3.39733105       3.40039739       3.39784991
C       -3.73243380       2.05638295       3.20080670
C       -2.92933682       1.25134415       2.39035104
C       -1.79165558       1.79165558       1.79165558
C       -1.45107638       3.13045577       1.99144022
C       -2.25927757       3.94127305       2.79285628
C       -6.56427101       2.83721575       7.27604910
O       -6.70620821       2.62888071       8.67808995
C       -5.55196786       2.63237983       9.41992797
C       -4.42615529       3.40177824       9.10298544
C       -3.29680026       3.38588955       9.92718199
C       -3.28047816       2.60401371      11.07854152
C       -4.39688414       1.83878146      11.41084694
C       -5.52934771       1.85833177      10.58943923
H       -5.82592238       5.65337821       5.52429620
H       -4.06983384       5.35684692       4.16858534
H       -4.61966369       1.63239244       3.66591237
H       -3.19947310       0.20989352       2.23374232
H       -0.55925547       3.54794059       1.53025796
H       -1.98255440       4.98086287       2.94808057
H       -5.67579457       2.31488661       6.90490248
H       -7.42558350       2.35675159       6.79656320
H       -4.39958001       4.04529388       8.23120056
H       -2.43333664       3.99565267       9.67202110
H       -2.40312989       2.59646665      11.72012837
H       -4.37885942       1.23298508      12.31296667
C       -6.65250420       1.04386173      10.97513090
C       -7.59314775       0.36174308      11.29814768
Br      -9.11408882      -0.74118510      11.82043849
O        7.08868789      -7.59340471       5.19493093
C        6.46706799      -6.97296155       4.33026644
N        5.58545155      -5.98235115       4.70469287
N        4.84646968      -5.28784052       3.80269347
C        4.25185695      -4.23433072       4.26487958
C        3.39834095      -3.39698536       3.40025205
C        2.93826804      -3.88068245       2.17067296
C        2.12766749      -3.07665051       1.36671402
C        1.79165558      -1.79165558       1.79165558
C        2.25431883      -1.30379402       3.01485952
C        3.05632455      -2.11051395       3.82656840
C        6.64750170      -7.20479632       2.82523785
O        7.96228650      -7.60277646       2.44811593
C        8.84936149      -6.59706897       2.15784520
C        8.82438043      -5.33771782       2.76882071
C        9.78518970      -4.37254988       2.45213222
C       10.78331465      -4.65545350       1.52426525
C       10.82530125      -5.90755641       0.91365487
C        9.86737916      -6.87570271       1.23403684
H        5.50310057      -5.80066007       5.69983615
H        4.37749473      -3.90520056       5.31257082
H        3.19812942      -4.88287075       1.83696833
H        1.76586346      -3.46103827       0.41620720
H        1.99786549      -0.29868124       3.34090730
H        3.41739696      -1.71972912       4.77437176
H        6.32423238      -6.34978268       2.22156861
H        5.97945599      -8.03457555       2.56486674
H        8.08254444      -5.07825904       3.51527098
H        9.75746608      -3.40192203       2.94162229
H       11.53178657      -3.90519525       1.28274309
H       11.60921343      -6.12314762       0.19245012
C        9.95246090      -8.15007768       0.56895825
C       10.02371686      -9.21736672       0.01195493
Br      10.13893172     -10.94308283      -0.88867232
C       -0.00445707       0.01189536      -1.78238275
H       -0.66409135       0.67374010      -2.43557963
H        0.65740317      -0.63156657      -2.45157240
C       -0.90989263      -0.90692880      -0.91072765
C        0.90977584       0.90977584      -0.90977584
C       -0.00465871       1.77757030       0.00794375
H       -0.66225468       2.44313916      -0.64384735
H        0.64322798       2.43503045       0.67728295
C       -1.78241447       0.00034974      -0.00472694
H       -2.45427497      -0.65498947       0.64260836
H       -2.43311707       0.67328779      -0.65473579
C       -0.91132561       0.90220522       0.91563759
C       -0.01476271      -0.02253852       1.78660255
H       -0.67934791      -0.69751639       2.42135241
H        0.63392994       0.61504881       2.47327442
C        0.01484550      -1.77751727      -0.01636693
H        0.67870853      -2.42144646      -0.68295456
H       -0.62264859      -2.45592969       0.64226336
C        1.78714474       0.01002794       0.00389507
H        2.44202412       0.67113390       0.66197326
H        2.45385902      -0.65136977      -0.64189061
C        0.91606151      -0.90478549       0.90901405
