129
Properties=species:S:1:pos:R:3 pbc="F F F"
C        0.00000000       0.00000000       0.00000000
O        5.98035129       6.82704468      -4.33991549
C        5.33819654       6.22544154      -3.47694583
N        4.57068393       5.13814256      -3.83395701
N        3.81454123       4.45598170      -2.93676867
C        3.34440745       3.32353189      -3.35341584
C        2.48870280       2.48694203      -2.49022145
C        1.89071527       3.02411631      -1.34507980
C        1.08016398       2.21952620      -0.54162977
C        0.88175155       0.88175155      -0.88175155
C        1.48209913       0.34115243      -2.02000874
C        2.28455545       1.14708894      -2.83205045
C        5.37287224       6.58764387      -1.98730768
O        6.61643985       7.12284864      -1.54417831
C        7.55126536       6.22087069      -1.10242754
C        7.67550106       4.92030703      -1.60539880
C        8.67821079       4.06685323      -1.13509571
C        9.56979609       4.50381082      -0.15971441
C        9.46304709       5.79857594       0.34482256
C        8.46328528       6.65494497      -0.12917638
Br       8.37058769       8.40310056       0.60996506
H        4.58666958       4.87354570      -4.81366944
H        3.58286993       2.92588391      -4.35680019
H        2.04308276       4.06746059      -1.07771307
H        0.61097542       2.64466742       0.34224598
H        1.33270003      -0.70421669      -2.27925861
H        2.75328588       0.71574075      -3.71275914
H        5.06725317       5.75786630      -1.34075212
H        4.62296383       7.37597373      -1.85024865
H        7.02144400       4.54226656      -2.38265183
H        8.76711319       3.06230740      -1.54187774
H       10.35121937       3.84016589       0.20137243
H       10.16442944       6.13461833       1.10394868
O       -4.97664195      -4.99482024      -7.17584927
C       -4.16638409      -4.24153525      -6.63266458
N       -4.20404750      -4.07318159      -5.26555442
N       -3.36213678      -3.23195555      -4.61319928
C       -3.34262698      -3.35457757      -3.32415063
C       -2.48919294      -2.48990164      -2.48677170
C       -1.93967192      -1.31313635      -3.00710311
C       -1.13779188      -0.50402846      -2.19949961
C       -0.88175155      -0.88175155      -0.88175155
C       -1.42323207      -2.05841858      -0.36160964
C       -2.23534080      -2.86416224      -1.16419179
C       -3.06201189      -3.49510816      -7.39070374
O       -2.56395902      -4.18835910      -8.53114869
C       -1.51170483      -5.04314695      -8.31971180
C       -1.31518999      -5.75540296      -7.13061394
C       -0.24074420      -6.64041158      -6.99900394
C        0.64737203      -6.82625788      -8.05443547
C        0.45991215      -6.12975418      -9.24695843
C       -0.61809799      -5.24803921      -9.38126943
Br      -0.80723691      -4.32500382     -11.03148246
H       -4.90714459      -4.60456447      -4.76217565
H       -3.94066377      -4.12334527      -2.80154499
H       -2.13828338      -1.01559615      -4.03437689
H       -0.72061298       0.41378279      -2.60656667
H       -1.21599100      -2.35540945       0.66365849
H       -2.64719208      -3.78198370      -0.75260999
H       -2.23313618      -3.18996943      -6.74276598
H       -3.52055426      -2.56955377      -7.75907818
H       -1.99294753      -5.66366766      -6.28974721
H       -0.10646084      -7.19281885      -6.07201864
H        1.47946483      -7.51796522      -7.95151244
H        1.15512634      -6.28188562     -10.06833982
O       -6.17372453       6.68748648       4.28610044
C       -5.55158925       6.06755515       3.42143952
N       -4.67285301       5.07430014       3.79563035
N       -3.93343346       4.38013261       2.89372552
C       -3.34201732       3.32439935       3.35493851
C       -2.48844381       2.48707732       2.49034516
C       -2.02475952       2.97239070       1.26276115
C       -1.21415915       2.16834475       0.45881604
C       -0.88175155       0.88175155       0.88175155
C       -1.34802150       0.39229261       2.10294619
C       -2.15003777       1.19899208       2.91466498
C       -5.72835782       6.30293908       1.91652689
O       -7.04150282       6.70448626       1.53747773
C       -7.93007922       5.70126654       1.24321783
C       -7.90903968       4.44058163       1.85158558
C       -8.87120890       3.47811252       1.53083831
C       -9.86677554       3.76507524       0.60147054
C       -9.90483658       5.01854707      -0.00658319
C       -8.94555605       5.98399284       0.31785775
Br      -9.05243768       7.66776362      -0.55647811
H       -4.59298509       4.89034042       4.79055920
H       -3.47055862       2.99332947       4.40166594
H       -2.28180501       3.97582569       0.93062572
H       -0.84954136       2.55396894      -0.49011344
H       -1.09437402      -0.61404353       2.42741146
H       -2.51393171       0.80697500       3.86087906
H       -5.40561656       5.44851830       1.31173674
H       -5.05801819       7.13185314       1.65931488
H       -7.16932864       4.17798654       2.59904721
H       -8.84656243       2.50639966       2.01833624
H      -10.61631441       3.01690847       0.35678996
H      -10.68676927       5.23731041      -0.72898059
O        5.14320028      -4.83883691       7.16527426
C        4.34928750      -4.06631131       6.62498510
N        4.29433937      -3.99865158       5.24979255
N        3.46684729      -3.14398571       4.59645859
C        3.34036976      -3.35582221       3.32516322
C        2.48895792      -2.49006941       2.48683896
C        2.06555005      -1.24088256       2.95347876
C        1.26374552      -0.43221968       2.14535474
C        0.88175155      -0.88175155       0.88175155
C        1.29718408      -2.13021357       0.41586265
C        2.10901688      -2.93666712       1.21801083
C        3.36168547      -3.18592557       7.40021275
O        2.90424313      -3.75655634       8.62266734
C        1.78098624      -4.54137209       8.55220525
C        1.44430036      -5.31904129       7.43786524
C        0.30292298      -6.12656143       7.45067531
C       -0.51298345      -6.16880324       8.57750153
C       -0.18615842      -5.40586680       9.69709208
C        0.95873660      -4.60170298       9.68696705
Br       1.33822018      -3.58115316      11.24434985
H        4.91752786      -4.61648603       4.73987082
H        3.84077563      -4.20309473       2.82168366
H        2.36257456      -0.88730381       3.93837805
H        0.94496020       0.54129270       2.50972937
H        0.99176891      -2.48244519      -0.56647214
H        2.42215827      -3.91010306       0.84952444
H        2.50949564      -2.86511275       6.79126320
H        3.91145378      -2.27429116       7.66344128
H        2.06069745      -5.33913486       6.54653007
H        0.05946532      -6.73142188       6.58041112
H       -1.39743506      -6.80053691       8.58691099
H       -0.82568538      -5.44588968      10.57489479
