125
Properties=species:S:1:pos:R:3 pbc="F F F"
C        0.00000000       0.00000000       0.00000000
C        0.86705979       0.86705979      -0.86705979
C        2.11391097       0.52825267      -1.33734354
C        2.56328012       1.63656071      -2.09765534
C        1.56013815       2.59059563      -2.05030609
O        0.52189922       2.10883848      -1.29591601
C        1.43855203       3.91477335      -2.61729294
O        0.45015869       4.63588376      -2.55026538
O        2.63802511       4.24344930      -3.25579314
C        2.82172181       5.51942948      -3.82306655
C        2.42193665       6.69280524      -3.18460289
C        2.69385946       7.92256318      -3.78396518
C        3.38947657       7.96677822      -4.99458659
C        3.78972442       6.79434628      -5.63340972
C        3.51643184       5.56310836      -5.03437041
O        3.58218621       9.25200792      -5.53849126
C        4.75817302       9.60049232      -6.20441299
O        5.71341591       8.85972521      -6.40651694
C        4.69028047      10.98655525      -6.60901562
C        5.59121252      11.76732620      -7.31184710
C        5.02307235      13.06168095      -7.41111809
C        3.81071611      12.99699305      -6.76468271
Br       2.61899229      14.41831991      -6.56941800
O        3.59810088      11.74631561      -6.27886053
H        2.63745979      -0.39996122      -1.15434222
H        3.50618265       1.73132880      -2.61968447
H        1.89837886       6.67034173      -2.23331767
H        2.36658129       8.84242949      -3.30655925
H        4.31079823       6.81801957      -6.58548601
H        3.84224029       4.64445171      -5.51419966
H        6.54522352      11.43331328      -7.69850229
H        5.44859721      13.93212535      -7.89126014
C       -0.86705979      -0.86705979      -0.86705979
C       -2.23955358      -0.92845205      -0.81150155
C       -2.63211620      -1.87363511      -1.79174486
C       -1.47283032      -2.33444082      -2.39376873
O       -0.39491453      -1.70917519      -1.82256400
C       -1.22908125      -3.29899496      -3.44254212
O       -0.13808007      -3.56589450      -3.93233326
O       -2.44504705      -3.88382120      -3.80839930
C       -2.48310712      -4.92505466      -4.75605605
C       -1.56473814      -5.97427094      -4.76033570
C       -1.70546734      -7.00058992      -5.69433057
C       -2.77827713      -6.98367493      -6.58888932
C       -3.69693839      -5.93537268      -6.58516934
C       -3.55553003      -4.90712919      -5.65125139
O       -2.81264535      -8.04288612      -7.51715392
C       -4.01329005      -8.62856118      -7.92122709
O       -5.13316240      -8.29489477      -7.55160088
C       -3.73666927      -9.71244927      -8.83673281
C       -4.59276269     -10.56120364      -9.51641948
C       -3.78150705     -11.45166997     -10.26269437
C       -2.47971866     -11.09628272      -9.99639049
Br      -0.97036572     -11.93471064     -10.70165383
O       -2.44116260     -10.04400213      -9.13811230
H       -2.87986982      -0.36544266      -0.14652831
H       -3.64007358      -2.18394965      -2.03317269
H       -0.73870381      -6.00736581      -4.05596865
H       -0.98233355      -7.81145707      -5.72177941
H       -4.52076837      -5.90215888      -7.29137655
H       -4.27798927      -4.09609756      -5.62680483
H       -5.67360037     -10.53511392      -9.46832480
H       -4.10803850     -12.25397629     -10.90996790
C       -0.86705979       0.86705979       0.86705979
C       -0.46660754       2.02866635       1.48423328
C       -1.59400364       2.50443101       2.19906153
C       -2.62261591       1.60441670       1.97400725
O       -2.16877031       0.60477464       1.15310877
C       -3.99219185       1.54560850       2.43281799
O       -4.82644493       0.71367203       2.09619087
O       -4.21239275       2.59507924       3.32979555
C       -5.44686318       2.72137508       3.99597957
C       -6.12154977       1.63198853       4.54580648
C       -7.30995698       1.84673039       5.24370047
C       -7.79155282       3.14716997       5.41211860
C       -7.11764077       4.23678511       4.86305454
C       -5.92871836       4.02200761       4.16318464
O       -9.01725279       3.25756022       6.09787238
C       -9.27542491       4.30866067       6.97899275
O       -8.51170328       5.23216140       7.23579337
C      -10.58510193       4.13513954       7.56560988
C      -11.28394619       4.92278106       8.46365855
C      -12.51493279       4.26701363       8.71392496
C      -12.49700201       3.11931446       7.95607540
Br     -13.86276249       1.85075189       7.89321581
O      -11.33644175       3.03131579       7.25551949
H        0.51558133       2.47757704       1.42984508
H       -1.65274541       3.39751534       2.80693517
H       -5.74512108       0.61895774       4.43795946
H       -7.85616611       1.00274857       5.65665535
H       -7.49623619       5.24865522       4.96941240
H       -5.38525485       4.86664369       3.74899312
H      -10.93505857       5.85622292       8.88575760
H      -13.31208892       4.59119342       9.36870036
C        0.86705979      -0.86705979       0.86705979
C        0.59801470      -2.17100187       1.21049060
C        1.66873116      -2.58960734       2.03915767
C        2.53466815      -1.51436898       2.15200274
O        2.03669753      -0.46286149       1.42709469
C        3.78100065      -1.32907695       2.86054073
O        4.48839643      -0.32946002       2.81845138
O        4.04968798      -2.47945736       3.60812221
C        5.16699201      -2.53329884       4.46392698
C        5.53365821      -1.47332972       5.29235685
C        6.61775011      -1.62604435       6.15659337
C        7.30015293      -2.84393287       6.20675557
C        6.93416175      -3.90414469       5.37917397
C        5.84987128      -3.75110896       4.51293037
O        8.40294596      -2.88734247       7.08239695
C        8.71124581      -4.03044360       7.82138892
O        8.10171492      -5.09308579       7.78485734
C        9.85825543      -3.76691786       8.66067806
C       10.54254339      -4.58889148       9.53895094
C       11.57609691      -3.80732035      10.11245413
C       11.46373513      -2.55594942       9.55270733
Br      12.56307885      -1.10072543       9.94292591
O       10.43060285      -2.52136582       8.67130836
H       -0.26308114      -2.74947783       0.90544410
H        1.79679082      -3.55975457       2.50065053
H        4.99720223      -0.52913779       5.27569825
H        6.92665305      -0.79877431       6.79014267
H        7.47273644      -4.84659648       5.39497089
H        5.54394626      -4.57835636       3.87858905
H       10.31156662      -5.62722381       9.73824866
H       12.30763737      -4.11917090      10.84517443
