114
Properties=species:S:1:pos:R:3 pbc="F F F"
C        1.79189494       1.79189494      -1.79189494
C        1.63766754       3.17944353      -1.75256307
C        2.43350702       3.99089191      -2.56331894
C        3.38615324       3.41413359      -3.40272080
C        3.54413253       2.02766631      -3.41444505
C        2.73825878       1.20414598      -2.63083096
O        4.49007456       1.51394551      -4.31786327
C        5.42549458       0.59255659      -3.84720980
O        5.48494452       0.15314037      -2.70502283
C        6.33770200       0.23984514      -4.91157918
C        7.41348658      -0.63076726      -4.92303657
C        7.97075692      -0.57809450      -6.22431583
C        7.20345262       0.31762798      -6.93201720
O        6.21173818       0.81674337      -6.14852822
H        0.89822297       3.63581986      -1.09929106
H        2.30872219       5.07077074      -2.54271190
H        4.00077779       4.04190447      -4.04224481
H        2.84616006       0.12454860      -2.66509029
H        7.75064862      -1.22383770      -4.08274334
H        8.82727359      -1.12391742      -6.59543894
C        7.41554631       0.68585363      -8.30789007
C        7.59317477       0.99424261      -9.46018359
Br       7.88038497       1.49288150     -11.32334476
C       -1.79189494      -1.79189494      -1.79189494
C       -2.44595778      -1.23207939      -2.89163697
C       -3.26147112      -2.03016664      -3.69608011
C       -3.41292222      -3.38548341      -3.40460200
C       -2.73517669      -3.93535733      -2.31570987
C       -1.93974817      -3.14501723      -1.48847032
O       -2.97123089      -5.29589481      -2.05475764
C       -1.87404039      -6.13410362      -1.85711697
O       -0.69905105      -5.78681119      -1.85724548
C       -2.32899053      -7.49291544      -1.66722035
C       -1.61630345      -8.65602637      -1.43342608
C       -2.56206910      -9.70714119      -1.34776796
C       -3.79544130      -9.12654362      -1.53111289
O       -3.66645707      -7.78751533      -1.72303737
H       -2.33097538      -0.17669641      -3.12566210
H       -3.78027712      -1.59513108      -4.54679663
H       -4.05442377      -4.00770046      -4.02280283
H       -1.43750142      -3.57217020      -0.62612734
H       -0.53994013      -8.72594688      -1.34366726
H       -2.36516446     -10.75659564      -1.17703500
C       -5.05200217      -9.82985098      -1.52743685
C       -6.10437191     -10.41887090      -1.52435816
Br      -7.80596476     -11.37126630      -1.51938019
C       -1.79189494       1.79189494       1.79189494
C       -2.51247005       1.21640282       2.84080128
C       -3.32821718       2.01495742       3.64454326
C       -3.41366641       3.38585817       3.40348305
C       -2.67028934       3.95001735       2.36593720
C       -1.87334606       3.16092984       1.53895982
O       -2.84125610       5.32841242       2.15221482
C       -1.70448060       6.12779290       2.03298748
O       -0.54518822       5.73256446       2.06535504
C       -2.09698592       7.51068401       1.88145639
C       -1.32971286       8.65173837       1.72430467
C       -2.22872855       9.74356432       1.64468538
C       -3.49066123       9.20756073       1.75487584
O       -3.42288713       7.85779526       1.89632738
H       -2.44916943       0.14872696       3.03543749
H       -3.89853203       1.56832872       4.45534408
H       -4.05497058       4.00903043       4.02092606
H       -1.31939587       3.60083324       0.71556984
H       -0.24863702       8.68067308       1.68024416
H       -1.98350076      10.78993880       1.52535554
C       -4.71713324       9.96172831       1.73042845
C       -5.74430354      10.59334367       1.70995376
Br      -7.40515105      11.61461227       1.67684792
C        1.79189494      -1.79189494       1.79189494
C        1.49091672      -3.14871126       1.93004617
C        2.28686621      -3.95842052       2.74243114
C        3.38517031      -3.41207216       3.40576516
C        3.68653922      -2.05962575       3.24007892
C        2.88508038      -1.23400942       2.45414592
O        4.77910323      -1.56812150       3.97465861
C        5.74417503      -0.81536898       3.30571697
O        5.71600219      -0.50680182       2.12030371
C        6.80537268      -0.46228498       4.22146865
C        7.95976195       0.27408174       4.02007568
C        8.65574783       0.29250510       5.25373552
C        7.88690988      -0.42978708       6.13640085
O        6.76456291      -0.88910113       5.52334573
H        0.63730903      -3.58155671       1.41446815
H        2.04908918      -5.01279115       2.86032450
H        4.00131884      -4.03709741       4.04651081
H        3.10773454      -0.17654040       2.35152402
H        8.25689536       0.73355314       3.08621204
H        9.60155076       0.77082769       5.46807203
C        8.21781977      -0.67527422       7.51619601
C        8.49495681      -0.88086969       8.67177447
Br       8.94306396      -1.21330019      10.54024709
C       -0.00445707       0.01189536      -1.78238275
H       -0.66409135       0.67374010      -2.43557963
H        0.65740317      -0.63156657      -2.45157240
C       -0.90989263      -0.90692880      -0.91072765
C        0.90977584       0.90977584      -0.90977584
C       -0.00465871       1.77757030       0.00794375
H       -0.66225468       2.44313916      -0.64384735
H        0.64322798       2.43503045       0.67728295
C       -1.78241447       0.00034974      -0.00472694
H       -2.45427497      -0.65498947       0.64260836
H       -2.43311707       0.67328779      -0.65473579
C       -0.91132561       0.90220522       0.91563759
C       -0.01476271      -0.02253852       1.78660255
H       -0.67934791      -0.69751639       2.42135241
H        0.63392994       0.61504881       2.47327442
C        0.01484550      -1.77751727      -0.01636693
H        0.67870853      -2.42144646      -0.68295456
H       -0.62264859      -2.45592969       0.64226336
C        1.78714474       0.01002794       0.00389507
H        2.44202412       0.67113390       0.66197326
H        2.45385902      -0.65136977      -0.64189061
C        0.91606151      -0.90478549       0.90901405
