125
Properties=species:S:1:pos:R:3 pbc="F F F"
C        0.00000000       0.00000000       0.00000000
C        0.86715240       0.86715240      -0.86715240
C        0.59744532       2.17138606      -1.21079094
C        1.66475939       2.58806417      -2.04329783
C        2.52778574       1.51173890      -2.15770215
O        2.03628711       0.46088078      -1.42898368
C        3.75817887       1.37111973      -2.90321574
O        4.21703431       2.22605283      -3.65278599
O        4.32556952       0.12321019      -2.64360245
C        5.48607993      -0.28143024      -3.33095174
C        6.59247999       0.54910584      -3.50624502
C        7.71519655       0.06089323      -4.17628326
C        7.72814710      -1.25032956      -4.65604392
C        6.61637546      -2.07445708      -4.46159495
C        5.50053041      -1.60520550      -3.77415942
O        6.74493596      -3.39079748      -4.96158559
C        5.66179415      -4.21487354      -5.27513460
O        4.47877232      -3.91265901      -5.17794284
C        6.13679686      -5.49997163      -5.73333721
C        5.44648654      -6.67327768      -5.97765209
C        6.39374812      -7.62011162      -6.43610538
C        7.60539676      -6.96895149      -6.45436366
Br       9.21990187      -7.72430909      -7.00355729
O        7.46430151      -5.68799820      -6.02073318
H       -0.26353726       2.75034705      -0.90649144
H        1.79794316       3.55307391      -2.51504112
H        6.59615021       1.56891624      -3.13263756
H        8.57970160       0.70302230      -4.32501406
H        8.60443160      -1.62805388      -5.17655924
H        4.64106276      -2.23455797      -3.57200208
H        4.38266593      -6.81542820      -5.83680818
H        6.21053469      -8.64600252      -6.72405786
C       -0.86715240      -0.86715240      -0.86715240
C       -0.95870605      -2.23702134      -0.78389492
C       -1.87221297      -2.63260950      -1.79129893
C       -2.28840905      -1.47770677      -2.43111096
O       -1.67311265      -0.39731698      -1.85572194
C       -3.19233954      -1.29584063      -3.54433417
O       -3.70958022      -2.21126533      -4.17502759
O       -3.37159759       0.06633773      -3.78712230
C       -4.14024651       0.49214613      -4.88750104
C       -5.37976575      -0.06129769      -5.20676741
C       -6.09097335       0.43763417      -6.29903386
C       -5.56557914       1.48714503      -7.05542735
C       -4.32777470       2.03961434      -6.71535297
C       -3.62089671       1.56530052      -5.61388814
O       -3.90180835       3.11486354      -7.52877925
C       -2.56908459       3.51029994      -7.66327056
O       -1.60602731       2.98264021      -7.12066905
C       -2.48051417       4.65303486      -8.54268313
C       -1.41153584       5.48439907      -8.82372418
C       -1.86459305       6.42982804      -9.77497687
C       -3.18013485       6.11644131     -10.02711539
Br      -4.28451589       7.01635293     -11.23098710
O       -3.56738012       5.04921925      -9.27887561
H       -0.42928863      -2.87459624      -0.08941636
H       -2.19288645      -3.63695325      -2.03621850
H       -5.80109494      -0.87413062      -4.62247845
H       -7.05448717       0.00764996      -6.56090075
H       -6.12233719       1.87430586      -7.90490563
H       -2.67886010       2.00201080      -5.30165757
H       -0.42478838       5.40630189      -8.38555941
H       -1.29726405       7.23302950     -10.22435549
C       -0.86715240       0.86715240       0.86715240
C       -2.21374453       1.08048131       0.68539648
C       -2.61454411       1.96672408       1.71485321
C       -1.48664626       2.24164113       2.46893940
O       -0.41905873       1.55936822       1.94772462
C       -1.31343038       3.10031680       3.61876716
O       -2.19089733       3.81613766       4.08883814
O       -0.00625216       2.99183541       4.09429458
C        0.42860166       3.80780651       5.15639657
C       -0.32279352       4.01172108       6.31331625
C        0.19352753       4.81390217       7.33199840
C        1.45480602       5.39639401       7.19227347
C        2.20107562       5.17247746       6.03211149
C        1.70564747       4.35513749       5.01999431
O        3.47492953       5.78553386       6.00511973
C        4.17920531       6.06853784       4.83272267
O        3.79286727       5.84482080       3.69210261
C        5.45340985       6.66776543       5.15580686
C        6.54194120       6.94418577       4.34861637
C        7.51804175       7.55770480       5.17007883
C        6.96686311       7.62921164       6.42846040
Br       7.79834719       8.37560635       7.92189090
O        5.72136599       7.08379100       6.43461148
H       -2.83107072       0.65699727      -0.09476675
H       -3.60319477       2.36949773       1.89336570
H       -1.30261827       3.55941387       6.43567186
H       -0.38783554       4.98546051       8.23444191
H        1.85470597       6.01979815       7.98784477
H        2.27937912       4.12994348       4.12794250
H        6.61019251       6.72307686       3.29116156
H        8.49698930       7.90981113       4.87576820
C        0.86715240      -0.86715240       0.86715240
C        2.11137706      -1.34326183       0.52498343
C        2.55136459      -2.12087688       1.62387993
C        1.54841133      -2.07200568       2.57680977
O        0.52041727      -1.29634320       2.10939110
C        1.45611823      -2.70178261       3.87461351
O        2.28505465      -3.48373540       4.32708308
O        0.28697601      -2.29022056       4.51518558
C       -0.06891737      -2.84488266       5.75963614
C        0.83794116      -3.00271581       6.80717387
C        0.39715911      -3.53594600       8.01926793
C       -0.94210345      -3.89738636       8.17857856
C       -1.84153447      -3.72151745       7.12353035
C       -1.41759380      -3.16881506       5.91826307
O       -3.17744991      -4.09336465       7.39980933
C       -4.11493036      -4.41965920       6.41732636
O       -3.90985538      -4.44392762       5.20998391
C       -5.38638093      -4.72504500       7.03149837
C       -6.63098522      -4.92085848       6.46098769
C       -7.52552222      -5.21815214       7.51711196
C       -6.77509375      -5.19605309       8.66984959
Br      -7.42876661      -5.54677836      10.38113831
O       -5.48070922      -4.88802885       8.38971686
H        2.63579310      -1.16018640      -0.40267827
H        3.48350854      -2.66253016       1.72001949
H        1.88079137      -2.72003788       6.69687476
H        1.09803199      -3.67035879       8.83934718
H       -1.28263540      -4.31142874       9.12414362
H       -2.10107302      -2.98205692       5.09752296
H       -6.85332358      -4.85364530       5.40372418
H       -8.58316714      -5.42959079       7.44216638
