194
Properties=species:S:1:pos:R:3 pbc="F F F"
C        1.79167379       1.79167379      -1.79167379
C        3.06811296       2.14721205      -1.35796561
C        3.87239733       2.95761474      -2.16309405
C        3.39783377       3.41161828      -3.39798483
C        2.11615018       3.04801655      -3.82595202
C        1.31188423       2.23689473      -3.02242690
C        4.23120614       4.26998033      -4.23799541
C        5.10231577       3.82480466      -5.16209504
C        5.40035445       2.39024922      -5.50163442
C        5.57675026       2.15945051      -7.00967522
C        5.99807984       0.71702696      -7.28888216
C        6.60852461       3.14295910      -7.57466292
C        6.16676577       4.55620404      -7.32489645
C        6.02920015       5.45554646      -8.31718839
C        5.48797517       6.80904658      -8.17830240
C        4.10992637       7.02126193      -8.30959216
C        3.58087689       8.30749603      -8.18139788
C        4.43189787       9.38008666      -7.91997351
C        5.80459679       9.17876948      -7.78535907
C        6.33250068       7.89186880      -7.91556621
C        5.83932738       4.89060215      -5.90688011
O        6.17503461       5.94319256      -5.37653644
H        3.44354845       1.80544086      -0.39715802
H        4.86518085       3.23875591      -1.81792570
H        1.73538340       3.39832557      -4.78250916
H        0.31629238       1.96435320      -3.36213977
H        4.09913713       5.33788958      -4.06363552
H        4.61124745       1.72305614      -5.13713896
H        6.32004989       2.10215472      -4.97542272
H        4.61168737       2.33042374      -7.50772381
H        6.95797277       0.48322586      -6.81667277
H        6.09972290       0.54436250      -8.36537730
H        5.25122875       0.01389179      -6.90609401
H        7.58855203       2.98402220      -7.10653718
H        6.73997574       2.95895147      -8.64825166
H        6.27186700       5.18085844      -9.34118118
H        3.43996205       6.18797737      -8.50827876
H        2.51002530       8.46030864      -8.28208288
H        6.46967528      10.01008500      -7.56893987
H        7.40081122       7.73675925      -7.78808796
C        3.88685808      10.70621328      -7.78610856
C        3.43038726      11.81684432      -7.67399667
Br       2.69231254      13.61264078      -7.49272122
C       -1.79167379      -1.79167379      -1.79167379
C       -2.79141195      -2.57087444      -1.21100423
C       -3.59462243      -3.38071027      -2.01777342
C       -3.39492957      -3.41071528      -3.40179202
C       -2.39041198      -2.62373535      -3.97597141
C       -1.58781639      -1.81288826      -3.17050121
C       -4.22479917      -4.26608011      -4.24830259
C       -5.39189751      -3.89272395      -4.80459400
C       -6.07171721      -2.55874010      -4.66178078
C       -6.70385258      -2.06906307      -5.97296035
C       -7.48415173      -0.77473988      -5.74509735
C       -7.61669557      -3.15538206      -6.55406900
C       -6.83164530      -4.41042114      -6.80579982
C       -6.78531348      -5.00279300      -8.01382851
C       -5.95054987      -6.15062294      -8.37415133
C       -4.65054460      -5.93981173      -8.85042413
C       -3.84452390      -7.02571077      -9.19953613
C       -4.34017040      -8.32205756      -9.06973009
C       -5.63191400      -8.54230779      -8.59450354
C       -6.43756128      -7.45503689      -8.24733753
C       -6.06079337      -4.93609200      -5.63992428
O       -6.00349089      -6.12849215      -5.36278058
H       -2.95014178      -2.55998825      -0.13601729
H       -4.36903794      -3.99275017      -1.56007435
H       -2.22368602      -2.64205232      -5.05047979
H       -0.80742148      -1.20929316      -3.62607071
H       -3.82456103      -5.26722990      -4.40887131
H       -5.37412378      -1.79309821      -4.30422055
H       -6.84919000      -2.65595621      -3.89248111
H       -5.90111120      -1.85558118      -6.69314254
H       -8.30263180      -0.92240864      -5.03283096
H       -7.91434275      -0.41105693      -6.68406301
H       -6.82876163       0.00896419      -5.35141711
H       -8.43916904      -3.37788836      -5.86205401
H       -8.07643132      -2.78994705      -7.48080050
H       -7.35488769      -4.59379925      -8.84521969
H       -4.25600242      -4.93119538      -8.94902039
H       -2.83653293      -6.85084853      -9.56503536
H       -6.01738989      -9.55151648      -8.47979379
H       -7.43624393      -7.63276995      -7.85664455
C       -3.50907347      -9.44211370      -9.42799275
C       -2.81302979     -10.38016073      -9.72803773
Br      -1.68758604     -11.89690342     -10.21318508
C       -1.79167379       1.79167379       1.79167379
C       -1.32597641       2.20980891       3.03750530
C       -2.13497921       3.01263020       3.84549672
C       -3.40732320       3.39334483       3.40676885
C       -3.86553195       2.97056607       2.15402073
C       -3.05707821       2.16908863       1.34503902
C       -4.26204739       4.22291513       4.25421936
C       -4.27095302       5.56860209       4.24966036
C       -3.41567982       6.47207028       3.40448799
C       -4.18269526       7.69131892       2.87186181
C       -3.24166394       8.63667226       2.12565274
C       -4.87731407       8.42116378       4.02766877
C       -5.82446289       7.49227048       4.73113289
C       -7.12980575       7.77903109       4.89309816
C       -8.14166321       6.88074259       5.45291835
C       -8.83087128       6.00121669       4.60869249
C       -9.79981591       5.14055614       5.12939874
C      -10.07664131       5.15989316       6.49542357
C       -9.39447279       6.03003638       7.34421617
C       -8.42676773       6.89154353       6.82162444
C       -5.23702362       6.20138540       5.19840063
O       -5.49658891       5.70827245       6.28990226
H       -0.34177448       1.91381604       3.39055681
H       -1.77080225       3.33096764       4.82009256
H       -4.85455574       3.25734395       1.80431844
H       -3.42449321       1.84233924       0.37595290
H       -4.91992010       3.66230161       4.91844052
H       -2.98641089       5.93162670       2.55340496
H       -2.57003410       6.80904811       4.01854511
H       -4.94530442       7.34459685       2.15993366
H       -2.45481747       9.01855681       2.78449712
H       -3.79188410       9.49382904       1.72374956
H       -2.76190857       8.12328374       1.28602225
H       -4.13742508       8.79401647       4.74766985
H       -5.40798237       9.29954941       3.63964709
H       -7.52931944       8.72633132       4.53825587
H       -8.61586940       5.97744271       3.54290607
H      -10.32627248       4.46021382       4.46593051
H       -9.59820183       6.03920079       8.41129754
H       -7.88212768       7.55274119       7.49078955
C      -11.07439375       4.27165725       7.03312892
C      -11.91001142       3.52775967       7.48345715
Br     -13.26113452       2.32494022       8.21159981
C        1.79167379      -1.79167379       1.79167379
C        1.26024712      -2.36888580       2.94415770
C        2.06873727      -3.17166245       3.75270640
C        3.40601022      -3.39341273       3.40801393
C        3.93017474      -2.81158801       2.24835599
C        3.12244768      -2.00999827       1.43875990
C        4.25892856      -4.22249362       4.25775969
C        4.39929621      -5.55520864       4.13471061
C        3.71451355      -6.44432085       3.13340369
C        4.64091070      -7.53297683       2.57198847
C        3.86641893      -8.48086166       1.65670836
C        5.29804277      -8.30745653       3.72064732
C        6.08399529      -7.37117995       4.59269102
C        7.39152636      -7.55540450       4.85500413
C        8.25735048      -6.62972654       5.58824713
C        8.92974352      -5.61445277       4.89658417
C        9.76016633      -4.72607045       5.58353401
C        9.91525935      -4.85379423       6.96290447
C        9.24852494      -5.85958759       7.66061281
C        8.41958067      -6.74851541       6.97183962
C        5.33442612      -6.18921018       5.11317336
O        5.44682948      -5.78373329       6.26420085
H        0.22446072      -2.19720351       3.22448309
H        1.65228611      -3.61450820       4.65506815
H        4.96954579      -2.97403424       1.97263810
H        3.54080005      -1.55906356       0.54292174
H        4.79749832      -3.67312677       5.03003714
H        3.31183677      -5.86374181       2.29586396
H        2.85459885      -6.91322934       3.62979913
H        5.42624727      -7.05223922       1.97134844
H        3.06519290      -8.99343260       2.19924590
H        4.53102789      -9.24255824       1.23587657
H        3.41531641      -7.93269720       0.82320095
H        4.53705830      -8.81286766       4.32918544
H        5.94410747      -9.09328429       3.30978711
H        7.91135217      -8.42441590       4.45813856
H        8.80886340      -5.50610315       3.82125163
H       10.27459965      -3.94029780       5.03751936
H        9.35669197      -5.95458146       8.73742673
H        7.88475140      -7.51747889       7.52342814
C       10.77004325      -3.93717760       7.67195907
C       11.48592477      -3.16951117       8.26579230
Br      12.64344464      -1.92825949       9.22597041
C       -0.00445707       0.01189536      -1.78238275
H       -0.66409135       0.67374010      -2.43557963
H        0.65740317      -0.63156657      -2.45157240
C       -0.90989263      -0.90692880      -0.91072765
C        0.90977584       0.90977584      -0.90977584
C       -0.00465871       1.77757030       0.00794375
H       -0.66225468       2.44313916      -0.64384735
H        0.64322798       2.43503045       0.67728295
C       -1.78241447       0.00034974      -0.00472694
H       -2.45427497      -0.65498947       0.64260836
H       -2.43311707       0.67328779      -0.65473579
C       -0.91132561       0.90220522       0.91563759
C       -0.01476271      -0.02253852       1.78660255
H       -0.67934791      -0.69751639       2.42135241
H        0.63392994       0.61504881       2.47327442
C        0.01484550      -1.77751727      -0.01636693
H        0.67870853      -2.42144646      -0.68295456
H       -0.62264859      -2.45592969       0.64226336
C        1.78714474       0.01002794       0.00389507
H        2.44202412       0.67113390       0.66197326
H        2.45385902      -0.65136977      -0.64189061
C        0.91606151      -0.90478549       0.90901405
