153
Properties=species:S:1:pos:R:3 pbc="F F F"
C        0.00000000       0.00000000       0.00000000
C        0.87959633       0.87959633      -0.87959633
C        1.99667963       0.33803716      -1.49984882
C        2.76641089       1.13812076      -2.35004148
C        2.46001046       2.49834467      -2.57344500
C        1.37704302       3.03953934      -1.87455918
C        0.56419399       2.22395737      -1.06443220
C        3.29990956       3.28586772      -3.49646777
N        4.64929678       2.96870056      -3.59865234
H        5.11642018       2.27867932      -3.03644551
C        5.24838657       3.70907309      -4.57530405
N        4.38450614       4.59090074      -5.03223632
C        3.17935439       4.36545399      -4.37289470
C        2.06677717       5.27393709      -4.67309702
C        0.71669829       4.99072383      -4.44544949
C       -0.26795786       5.96646962      -4.67152471
C        0.07927658       7.20927039      -5.19757057
Br      -1.24593769       8.52001540      -5.48908801
C        1.40423272       7.48462535      -5.51347540
C        2.38394259       6.52342872      -5.24466522
C        6.64245420       3.54541519      -5.00155912
C        7.20402606       4.47596994      -5.88775963
C        8.52755420       4.35121382      -6.31821143
C        9.30924911       3.28883047      -5.86974461
C        8.76756339       2.35122561      -4.99604947
C        7.44249505       2.47641828      -4.56604424
H        2.26901094      -0.70043611      -1.34517017
H        3.60359344       0.66250704      -2.84827151
H        1.13086093       4.09249366      -1.94811277
H       -0.30921503       2.65755555      -0.57703410
H        0.40055660       4.01647773      -4.09899683
H       -1.30374168       5.74059756      -4.43858254
H        1.69204586       8.43464403      -5.95523685
H        3.41765828       6.76322703      -5.48695383
H        6.60401929       5.30919446      -6.24995002
H        8.94378725       5.08313737      -7.00454700
H       10.33839347       3.19116106      -6.20534068
H        9.37425438       1.51744378      -4.65151046
H        7.05554410       1.71401200      -3.89557436
C       -0.87959633      -0.87959633      -0.87959633
C       -1.73111545      -0.29623412      -1.80721603
C       -2.49330062      -1.11222569      -2.64904682
C       -2.44842640      -2.52094264      -2.56243109
C       -1.64330577      -3.08133998      -1.56649579
C       -0.82940371      -2.26644038      -0.75673946
C       -3.26276359      -3.32811135      -3.49137010
N       -4.47534085      -2.81023309      -3.93107574
H       -4.87586769      -1.94619112      -3.60948620
C       -5.03877809      -3.62529698      -4.86868865
N       -4.31570697      -4.72041834      -4.97151788
C       -3.22355080      -4.57320580      -4.12094648
C       -2.29422019      -5.70393543      -4.01565567
C       -0.97539950      -5.61795921      -3.55951289
C       -0.19624056      -6.77540799      -3.39838792
C       -0.70241162      -8.02180126      -3.76190465
Br       0.34454060      -9.57448386      -3.53322246
C       -1.98006447      -8.12331366      -4.29895534
C       -2.76498221      -6.97164847      -4.41540586
C       -6.27056190      -3.31603421      -5.60283240
C       -6.85399500      -4.30131626      -6.41244437
C       -8.02546924      -4.04261523      -7.12889497
C       -8.62972561      -2.78994493      -7.04815365
C       -8.06174636      -1.79707982      -6.25601228
C       -6.88880599      -2.05656313      -5.53958845
H       -1.79954915       0.78256823      -1.89676408
H       -3.11085644      -0.61504301      -3.38847254
H       -1.61719246      -4.15230978      -1.40196513
H       -0.16621321      -2.73181425      -0.02734716
H       -0.52489210      -4.66252172      -3.32861734
H        0.80725223      -6.68881825      -2.99387240
H       -2.38162231      -9.08059941      -4.61970502
H       -3.76781637      -7.07397294      -4.82604982
H       -6.39083335      -5.28372884      -6.48860160
H       -8.46173409      -4.81974079      -7.74999674
H       -9.54034182      -2.58833669      -7.60621671
H       -8.52814939      -0.81671465      -6.19834458
H       -6.47147463      -1.24840032      -4.94525550
C       -0.87959633       0.87959633       0.87959633
C       -0.46437145       2.16248579       1.20770836
C       -1.30304543       2.98286460       1.96866309
C       -2.55385391       2.53286299       2.44508323
C       -2.91264270       1.21049882       2.16800002
C       -2.09929807       0.40058615       1.35269933
C       -3.40199610       3.45232109       3.22792785
N       -2.78308288       4.40568473       4.02788207
H       -1.78992946       4.47496537       4.16665018
C       -3.70482287       5.24280841       4.58513244
N       -4.91096573       4.80457220       4.29210527
C       -4.75551958       3.69129204       3.47089146
C       -5.97278248       2.98396975       3.05705906
C       -6.06843236       2.13112596       1.95331329
C       -7.25219659       1.41948151       1.69835838
C       -8.37552201       1.60991174       2.50068379
Br      -9.95953901       0.64335053       2.16027618
C       -8.33271367       2.51729766       3.55232215
C       -7.13701010       3.18923126       3.82579518
C       -3.37256689       6.41560120       5.40126042
C       -4.39772069       7.10132862       6.06870631
C       -4.12007472       8.22419803       6.85270669
C       -2.80970821       8.68042994       6.97768604
C       -1.77995010       8.01779862       6.31708975
C       -2.05868133       6.89424041       5.53203583
H        0.49395940       2.53999921       0.86770519
H       -0.95853382       3.99211080       2.16372737
H       -3.82686706       0.78224199       2.56235832
H       -2.43019825      -0.60760783       1.10278421
H       -5.23991639       2.00624631       1.26986846
H       -7.28571171       0.72412778       0.86559894
H       -9.20684287       2.70551044       4.16957343
H       -7.11999898       3.88590002       4.66194014
H       -5.42717915       6.75886709       5.97711753
H       -4.92855592       8.74090838       7.36200732
H       -2.59382759       9.55442919       7.58663844
H       -0.75801437       8.37754893       6.40764533
H       -1.22684025       6.41616045       5.02212976
C        0.87959633      -0.87959633       0.87959633
C        1.61257771      -1.91146980       0.31051810
C        2.46036726      -2.67801166       1.11619421
C        2.57035362      -2.45519628       2.50625023
C        1.76157060      -1.46248205       3.06708889
C        0.95161248      -0.64925703       2.25171404
C        3.49646507      -3.28583000       3.29994997
N        3.71548201      -4.59937046       2.90179722
H        3.23517453      -5.05247337       2.14389711
C        4.68093339      -5.18341253       3.66841780
N        5.01541577      -4.35612505       4.63610238
C        4.28828599      -3.18451348       4.44490361
C        4.44727900      -2.12204367       5.44448861
C        4.14329516      -0.77335341       5.23622303
C        4.23316025       0.15207688       6.28895311
C        4.69876575      -0.24711720       7.54023459
Br       4.80718834       0.99771541       8.95369279
C        5.08931768      -1.56437181       7.74864398
C        4.95560062      -2.48876025       6.70767566
C        5.21544786      -6.53080361       3.44317704
C        6.07554997      -7.09708561       4.39512005
C        6.60662304      -8.37676807       4.21358833
C        6.28671920      -9.10882426       3.07228072
C        5.44094988      -8.56099884       2.11288973
C        4.91018238      -7.27978494       2.29499024
H        1.54715115      -2.11874775      -0.75215389
H        3.04756213      -3.44413979       0.62267007
H        1.74715985      -1.28765900       4.13664852
H        0.37541041       0.15664146       2.70660568
H        3.84077505      -0.41230327       4.26295285
H        3.94250211       1.18352941       6.11646572
H        5.48628433      -1.88915943       8.70648298
H        5.25448656      -3.51852563       6.89482695
H        6.33779116      -6.53525212       5.29012050
H        7.27066605      -8.79753929       4.96326628
H        6.70059583     -10.10376905       2.93053034
H        5.19678963      -9.12827049       1.21814851
H        4.26604557      -6.88492705       1.51415784
