190
Properties=species:S:1:pos:R:3 pbc="F F F"
C        4.54334287      11.32682359      -9.35417643
O        3.48675104      10.66066446      -8.67303686
C        3.84190537       9.55741525      -7.94806398
C        2.79256093       8.68723254      -7.65191940
C        3.02128094       7.51716207      -6.92206467
C        4.30772393       7.20724801      -6.46132099
C        5.35409466       8.09105418      -6.75557274
C        5.12410356       9.26266430      -7.48771651
C        4.57967192       5.99601376      -5.68724203
N        3.64861479       5.37327349      -4.89849434
H        2.69274419       5.67351719      -4.78894116
C        4.21057092       4.27447894      -4.28375342
C        3.40787811       3.41132763      -3.41666632
C        3.47626265       2.01627204      -3.50975025
C        2.67773717       1.20732528      -2.69334007
C        1.79133718       1.79133718      -1.79133718
C        1.70162354       3.17620156      -1.69046326
C        2.51130419       3.98083257      -2.49654428
C        5.51554385       4.27822882      -4.75811383
N        5.72422133       5.35038231      -5.60722936
C        6.59069746       3.33287186      -4.48687465
C        6.75512996       2.70894073      -3.24419855
C        7.80295349       1.80394177      -3.03625723
C        8.70436441       1.53577929      -4.06491499
Br      10.12036472       0.31635262      -3.78124863
C        8.57289202       2.16631346      -5.29830228
C        7.52040445       3.06198472      -5.50437698
H        4.09348679      12.06694803     -10.02296879
H        5.12220783      10.62985836      -9.97001352
H        5.18831123      11.86152001      -8.65006327
H        1.79083177       8.91391564      -8.00913469
H        2.18241093       6.85005055      -6.74626555
H        6.36132194       7.87044560      -6.40399786
H        5.96392009       9.92444665      -7.67103109
H        4.14585776       1.54137119      -4.22375143
H        2.75204117       0.12604093      -2.77565498
H        1.01118156       3.63960511      -0.99032146
H        2.43758221       5.06099002      -2.38749780
H        6.08098856       2.92495723      -2.41964317
H        7.90927404       1.32215161      -2.06797818
H        9.27829802       1.97575761      -6.10248089
H        7.42642363       3.55785074      -6.46982953
C       -4.60683579     -11.46542512      -9.15208198
O       -3.55102345     -10.81020479      -8.45922412
C       -3.89386408      -9.67578011      -7.77774042
C       -2.82793210      -8.82807181      -7.47570895
C       -3.04258394      -7.63042589      -6.78749785
C       -4.33202623      -7.26941408      -6.37485262
C       -5.39545165      -8.13076375      -6.67450618
C       -5.17950934      -9.33005383      -7.36492120
C       -4.58992128      -6.02805071      -5.64495572
N       -3.66397705      -5.40931598      -4.84708958
H       -2.72116215      -5.73388727      -4.70015312
C       -4.21035645      -4.27662181      -4.28182502
C       -3.40772541      -3.41158867      -3.41655798
C       -3.43141711      -2.01855902      -3.55230880
C       -2.63310020      -1.20908402      -2.73621830
C       -1.79133718      -1.79133718      -1.79133718
C       -1.74625610      -3.17457266      -1.64745961
C       -2.55589002      -3.97909994      -2.45369108
C       -5.50046017      -4.25655556      -4.79487076
N       -5.71640115      -5.34719497      -5.61823687
C       -6.55417728      -3.27251569      -4.58375101
C       -6.73596697      -2.60699641      -3.36530586
C       -7.76174422      -1.66597828      -3.21543000
C       -8.62430088      -1.40266522      -4.27809259
Br     -10.01069314      -0.13448016      -4.07279267
C       -8.47591174      -2.07354120      -5.48805483
C       -7.44524872      -3.00531978      -5.63619766
H       -4.16010438     -12.23811796      -9.78518127
H       -5.14628708     -10.77069002      -9.80510261
H       -5.28784349     -11.95968209      -8.45236893
H       -1.82347295      -9.09450984      -7.79589932
H       -2.18953301      -6.98308716      -6.60610686
H       -6.40542210      -7.87040402      -6.35993928
H       -6.03312660      -9.97226628      -7.55400495
H       -4.06532794      -1.54599646      -4.29965598
H       -2.67244827      -0.12905411      -2.85223470
H       -1.09076695      -3.63667254      -0.91366864
H       -2.51786937      -5.05718374      -2.31101692
H       -6.09295995      -2.81771249      -2.51491652
H       -7.88173974      -1.15241526      -2.26524883
H       -9.15151534      -1.88673917      -6.31828200
H       -7.33808750      -3.53250141      -6.58351498
C      -12.43653860       6.45735363       6.33045066
O      -11.88136749       5.59219139       5.34689348
C      -10.51762742       5.49805710       5.33170008
C       -9.97608694       5.01554718       4.14007874
C       -8.59317610       4.87716506       3.99016652
C       -7.72807941       5.20604188       5.04217164
C       -8.28084810       5.68144683       6.23842666
C       -9.66650741       5.82064281       6.38733416
C       -6.27700375       5.06431695       4.92160701
N       -5.66820203       4.15730071       4.09487987
H       -6.15265268       3.51914599       3.48340387
C       -4.29825204       4.25157423       4.21897701
C       -3.41492372       3.41408056       3.40686778
C       -2.28843642       3.94568548       2.76816303
C       -1.47276808       3.13556677       1.97006766
C       -1.79133718       1.79133718       1.79133718
C       -2.91215166       1.24619638       2.40994032
C       -3.71594779       2.05443703       3.21829622
C       -4.13321722       5.26543120       5.15323808
N       -5.36004294       5.74088375       5.58090631
C       -2.89869960       5.84184720       5.66989717
C       -1.74040182       5.08461646       5.88325096
C       -0.57769210       5.68794643       6.37751396
C       -0.57556305       7.04820565       6.68128999
Br       0.99402402       7.86025741       7.35173258
C       -1.72489062       7.81153612       6.50108102
C       -2.88042822       7.20726000       5.99907794
H      -13.50266422       6.56977687       6.11096251
H      -11.98109264       7.45278545       6.28820163
H      -12.34563777       6.02330633       7.33095042
H      -10.63690475       4.76260354       3.31437382
H       -8.21291849       4.53305402       3.03275451
H       -7.62607170       5.93983150       7.06986220
H      -10.04567728       6.17301588       7.34070468
H       -2.03556615       4.99823379       2.87718044
H       -0.59806133       3.56617103       1.48950473
H       -3.16847599       0.19858895       2.27404319
H       -4.57676988       1.60241052       3.70688964
H       -1.72833300       4.01707877       5.68017719
H        0.31463919       5.08617514       6.52786788
H       -1.73875062       8.86951385       6.74827204
H       -3.77928037       7.80834033       5.86648319
C       12.13919928      -5.22559364       7.85954998
O       11.59104333      -4.26810345       6.96130559
C       10.28000921      -4.44875550       6.61861989
C        9.88390657      -3.79755380       5.45025249
C        8.57049675      -3.90589432       4.98411661
C        7.62479597      -4.65838979       5.69310718
C        8.02878225      -5.30179735       6.87014199
C        9.34520091      -5.19341960       7.33586386
C        6.24016302      -4.78471378       5.23805091
N        5.59915531      -3.83831526       4.48291204
H        6.01764830      -2.98175298       4.15580126
C        4.30227121      -4.23391148       4.23262059
C        3.41632512      -3.41207511       3.40747183
C        2.61412221      -3.97835023       2.40981249
C        1.79634154      -3.17240584       1.60965513
C        1.79133718      -1.79133718       1.79133718
C        2.58875987      -1.20827724       2.77125125
C        3.39277283      -2.01743882       3.57846939
C        4.21684819      -5.46399507       4.87104323
N        5.41269548      -5.77655328       5.49258423
C        3.09208447      -6.38847898       4.92988053
C        1.76073533      -5.95880644       4.98872747
C        0.71524764      -6.88864448       5.03926037
C        0.99860479      -8.25323358       5.05322032
Br      -0.41399795      -9.50700043       5.12496350
C        2.31637193      -8.69891438       5.02222146
C        3.35638651      -7.76764947       4.96273018
H       13.22042056      -5.06219811       7.90078493
H       11.97024495      -6.24789363       7.50394114
H       11.74199645      -5.08793274       8.86996533
H       10.61029190      -3.21548545       4.88810475
H        8.31522153      -3.41289338       4.05061211
H        7.30834783      -5.88926001       7.43815756
H        9.60236130      -5.69342581       8.26361073
H        2.62100379      -5.05255670       2.23741988
H        1.17488853      -3.63288620       0.84596235
H        2.59179598      -0.13120866       2.91810350
H        3.99402590      -1.54152254       4.35052160
H        1.51826981      -4.89962188       5.00769728
H       -0.31227700      -6.53664535       5.07503548
H        2.54924792      -9.75992765       5.04736094
H        4.38634148      -8.12220817       4.94555425
C       -0.00445707       0.01189536      -1.78238275
H       -0.66409135       0.67374010      -2.43557963
H        0.65740317      -0.63156657      -2.45157240
C       -0.90989263      -0.90692880      -0.91072765
C        0.90977584       0.90977584      -0.90977584
C       -0.00465871       1.77757030       0.00794375
H       -0.66225468       2.44313916      -0.64384735
H        0.64322798       2.43503045       0.67728295
C       -1.78241447       0.00034974      -0.00472694
H       -2.45427497      -0.65498947       0.64260836
H       -2.43311707       0.67328779      -0.65473579
C       -0.91132561       0.90220522       0.91563759
C       -0.01476271      -0.02253852       1.78660255
H       -0.67934791      -0.69751639       2.42135241
H        0.63392994       0.61504881       2.47327442
C        0.01484550      -1.77751727      -0.01636693
H        0.67870853      -2.42144646      -0.68295456
H       -0.62264859      -2.45592969       0.64226336
C        1.78714474       0.01002794       0.00389507
H        2.44202412       0.67113390       0.66197326
H        2.45385902      -0.65136977      -0.64189061
C        0.91606151      -0.90478549       0.90901405
