177
Properties=species:S:1:pos:R:3 pbc="F F F"
C        0.00000000       0.00000000       0.00000000
C        3.63343885      10.41691957      -8.44427241
O        2.57684702       9.75076044      -7.76313283
C        2.93200135       8.64751123      -7.03815995
C        1.88265690       7.77732851      -6.74201538
C        2.11137692       6.60725804      -6.01216065
C        3.39781991       6.29734398      -5.55141696
C        4.44419064       7.18115015      -5.84566872
C        4.21419954       8.35276028      -6.57781249
C        3.66976790       5.08610974      -4.77733800
N        2.73871076       4.46336946      -3.98859031
H        1.78284016       4.76361317      -3.87903714
C        3.30066690       3.36457491      -3.37384939
C        2.49797409       2.50142361      -2.50676229
C        2.56635862       1.10636801      -2.59984622
C        1.76783315       0.29742125      -1.78343605
C        0.88143316       0.88143316      -0.88143316
C        0.79171952       2.26629754      -0.78055924
C        1.60140016       3.07092855      -1.58664026
C        4.60563983       3.36832479      -3.84820980
N        4.81431730       4.44047829      -4.69732533
C        5.68079344       2.42296784      -3.57697062
C        5.84522593       1.79903671      -2.33429452
C        6.89304947       0.89403775      -2.12635321
C        7.79446038       0.62587527      -3.15501097
C        7.66298799       1.25640944      -4.38839826
C        6.61050043       2.15208070      -4.59447296
H        3.18358277      11.15704400      -9.11306476
H        4.21230381       9.71995434      -9.06010950
H        4.27840720      10.95161599      -7.74015925
H        0.88092775       8.00401161      -7.09923067
H        1.27250690       5.94014652      -5.83636153
H        5.45141791       6.96054158      -5.49409384
H        5.05401607       9.01454263      -6.76112706
H        3.23595373       0.63146717      -3.31384740
H        1.84213715      -0.78386309      -1.86575095
H        0.10127753       2.72970109      -0.08041744
H        1.52767819       4.15108600      -1.47759377
H        5.17108454       2.01505321      -1.50973915
H        6.99937002       0.41224758      -1.15807416
H        8.36839399       1.06585358      -5.19257686
H        6.51651960       2.64794671      -5.55992551
C        8.87325361      -0.30315647      -2.93889707
C        9.77674293      -1.08122055      -2.75790168
Br      11.23760875      -2.33928435      -2.46524744
C       -6.49204708     -11.38003491      -4.62254883
O       -5.56714153     -10.83413585      -3.68946291
C       -5.32298696      -9.49367863      -3.80100694
C       -4.14047902      -9.06077646      -3.20074531
C       -3.76859276      -7.71410500      -3.24809785
C       -4.58728840      -6.77298940      -3.88630306
C       -5.77737921      -7.21484026      -4.47879004
C       -6.14865673      -8.56448097      -4.43163460
C       -4.23226521      -5.35501721      -3.94593322
N       -3.45657849      -4.72583340      -3.00825864
H       -3.04487905      -5.17513864      -2.20547278
C       -3.31831405      -3.39197285      -3.32880431
C       -2.49731430      -2.50608470      -2.50276098
C       -1.59488863      -1.60215611      -3.07552812
C       -0.79546871      -0.78482734      -2.26839440
C       -0.88143316      -0.88143316      -0.88143316
C       -1.76534371      -1.78046169      -0.29277089
C       -2.57290254      -2.58436364      -1.10170279
C       -4.04421178      -3.27162873      -4.50633392
N       -4.60741247      -4.48483611      -4.85987235
C       -4.23906431      -2.09632901      -5.34533858
C       -4.35387527      -0.80269208      -4.82198981
C       -4.53571745       0.29460356      -5.67232654
C       -4.62543486       0.09954705      -7.04945881
C       -4.54032726      -1.18145643      -7.58601200
C       -4.34982128      -2.27277773      -6.73445509
H       -6.45210705     -12.46980702      -4.53177746
H       -6.21941249     -11.12139035      -5.65156480
H       -7.51407151     -11.06315463      -4.39295629
H       -3.49386469      -9.78269118      -2.70761416
H       -2.82172566      -7.42739394      -2.79989536
H       -6.42982337      -6.49890661      -4.97732335
H       -7.09015338      -8.85222003      -4.88731236
H       -1.49689201      -1.52784813      -4.15652816
H       -0.10701380      -0.08379635      -2.73321486
H       -1.83707714      -1.86306654       0.78874762
H       -3.26991782      -3.26685672      -0.61958343
H       -4.31536215      -0.63092068      -3.74959406
H       -4.61332286       1.29237278      -5.24874168
H       -4.62349715      -1.34660468      -8.65672261
H       -4.29075174      -3.27408383      -7.15955625
C       -4.81511314       1.22877323      -7.92265430
C       -4.97396870       2.17450017      -8.65395553
Br      -5.23082471       3.70366063      -9.83640775
C      -11.19883575       7.02782729       4.26796778
O      -10.59944560       6.26108731       3.23020738
C       -9.31796892       5.84253563       3.45716798
C       -8.60670882       5.48309260       2.31219937
C       -7.28278875       5.04393372       2.40407314
C       -6.65304334       4.94195187       3.65158564
C       -7.37747937       5.29647843       4.79705171
C       -8.70360908       5.73727467       4.70388856
C       -5.27213652       4.47733164       3.78374748
N       -4.66807510       3.62736159       2.89523385
H       -5.10327750       3.25736225       2.06485071
C       -3.37809359       3.35935304       3.30164457
C       -2.50322170       2.50577980       2.49715849
C       -1.17412724       2.86050926       2.23793636
C       -0.36166185       2.04670901       1.44031958
C       -0.88143316       0.88143316       0.88143316
C       -2.20286576       0.51635483       1.11935570
C       -3.00691064       1.32349102       1.92856731
C       -3.25221796       4.10160666       4.46834980
N       -4.43009937       4.76926123       4.75276032
C       -2.09307437       4.24868781       5.33896972
C       -1.19100486       3.20568948       5.58186283
C       -0.08943416       3.40017238       6.42383388
C        0.10227157       4.63349088       7.04412730
C       -0.79816085       5.67367793       6.83595691
C       -1.89121443       5.47804981       5.98778985
H      -12.13679245       7.43678389       3.88011519
H      -10.56278503       7.87112917       4.55845344
H      -11.44017192       6.39928490       5.13072562
H       -9.08270009       5.56363902       1.33783092
H       -6.75500263       4.80989135       1.48412097
H       -6.90757021       5.22146309       5.77702003
H       -9.22777612       5.97968729       5.62222235
H       -0.75635246       3.77809523       2.64682061
H        0.67007500       2.33610441       1.25799559
H       -2.61642090      -0.39048483       0.68545998
H       -4.03155955       1.00880006       2.11599835
H       -1.33700117       2.22758234       5.13129339
H        0.60534554       2.58188078       6.59315652
H       -0.66646112       6.63458517       7.32577815
H       -2.59664901       6.29383036       5.83391245
C        1.23424478       4.83129173       7.91194726
C        2.18227234       4.99694993       8.63874647
Br       3.71515273       5.26480524       9.81391933
C       11.37539068      -4.61052477       6.50871537
O       10.82946913      -3.67650569       5.58476547
C        9.48989655      -3.79074693       5.33702905
C        9.05842699      -3.18863605       4.15493775
C        7.71279627      -3.23838620       3.77961314
C        6.77124585      -3.88092559       4.59440941
C        7.21162618      -4.47525855       5.78412477
C        8.56022813      -4.42569669       6.15884748
C        5.35430362      -3.94317047       4.23574154
N        4.72471909      -3.00513615       3.46081530
H        5.17305377      -2.20023266       3.05220404
C        3.39199829      -3.32862288       3.31847004
C        2.50609809      -2.50273936       2.49732254
C        1.60581076      -3.07550122       1.59126087
C        0.78846306      -2.26841165       0.79181574
C        0.88143316      -0.88143316       0.88143316
C        1.77682682      -0.29274261       1.76900686
C        2.58073217      -1.10168351       2.57655329
C        3.27277409      -4.50823340       4.04116694
N        4.48546000      -4.86017263       4.60648829
C        2.09907267      -5.35060779       4.23105144
C        0.80386912      -4.83073084       4.34395720
C       -0.29176869      -5.68421306       4.52099605
C       -0.09353506      -7.06107814       4.60780354
C        1.18899458      -7.59426384       4.52453727
C        2.27867639      -6.73955478       4.33882291
H       12.46503045      -4.51697209       6.47168899
H       11.11995893      -5.63949838       6.23291033
H       11.05542915      -4.38423655       7.53051674
H        9.78071224      -2.69213431       3.51132348
H        7.42731206      -2.78855521       2.83314768
H        6.49532095      -4.97716207       6.43357030
H        8.84677200      -4.88298711       7.09992666
H        1.53441278      -4.15643578       1.49041974
H        0.09027881      -2.73325606       0.10049014
H        1.85658500       0.78879565       1.84360671
H        3.26031486      -0.61960707       3.27643603
H        0.62954658      -3.75866950       4.30766082
H       -1.29076847      -5.26327909       4.59718114
H        1.35657990      -8.66476660       4.60547794
H        3.28117114      -7.16204210       4.28117858
C       -1.22106609      -7.93751694       4.79254336
C       -2.16537333      -8.67153444       4.94726296
Br      -3.69223827      -9.85837865       5.19743146
