185
Properties=species:S:1:pos:R:3 pbc="F F F"
C        0.00000000       0.00000000       0.00000000
C        0.88132717       0.88132717      -0.88132717
C        2.26500436       0.84388672      -0.73274911
C        3.07187606       1.65149322      -1.54007296
C        2.50109465       2.50862444      -2.49148380
C        1.10690512       2.52120388      -2.63837884
C        0.29745829       1.71427901      -1.83269971
C        3.31624152       3.35799680      -3.37112204
C        4.45390514       3.95467843      -2.97997861
C        5.23042432       4.81550893      -3.88187183
C        6.06506564       4.11443001      -4.76787088
C        6.86906508       4.81344861      -5.64612300
N        6.84160342       6.16077613      -5.67553133
C        6.04605262       6.83787474      -4.83353179
C        6.11761687       8.20953220      -4.95217635
C        5.36512082       9.06059515      -4.15357060
C        4.50089412       8.54649559      -3.19409587
C        3.76034456       9.44939535      -2.41062659
C        2.87915970       9.00052774      -1.43535595
C        2.73232472       7.64045667      -1.23667092
C        3.46823902       6.73722379      -2.01382979
C        4.38323913       7.14082198      -3.02494370
C        5.18552682       6.24864093      -3.87562954
C        7.80108046       4.16635098      -6.59493452
C        8.12982984       4.78882450      -7.81552561
C        9.01330893       4.19963649      -8.72685440
C        9.59093464       2.97082744      -8.42854302
Br      10.78762123       2.17003051      -9.65201319
C        9.29555005       2.33101286      -7.22915488
C        8.41063294       2.92639369      -6.32165993
H        2.72741221       0.18969471       0.00182587
H        4.15096486       1.59367642      -1.42049004
H        0.63587062       3.16837550      -3.37586932
H       -0.78168556       1.74426858      -1.95668965
H        2.92664943       3.52136842      -4.37408584
H        4.85839070       3.84651326      -1.97697394
H        6.06930037       3.02862561      -4.76292785
H        6.78844220       8.64010996      -5.69351053
H        5.46966763      10.13410651      -4.29673578
H        3.86631086      10.52298408      -2.55671289
H        2.31307631       9.70905641      -0.83763163
H        2.04720856       7.26857352      -0.47893461
H        3.29335487       5.69169637      -1.79505898
H        7.69017076       5.75449559      -8.06415139
H        9.24148484       4.71217330      -9.65750507
H        9.75141358       1.37536015      -6.98387020
H        8.22249425       2.41085981      -5.38255693
C       -0.88132717      -0.88132717      -0.88132717
C       -1.88879708      -1.64908725      -0.30375585
C       -2.69567908      -2.45638600      -1.11137715
C       -2.49348517      -2.51001842      -2.49769930
C       -1.48486610      -1.71776916      -3.06385259
C       -0.67665481      -0.90908061      -2.25870160
C       -3.33263560      -3.33119056      -3.38153421
C       -3.81496700      -4.53625733      -3.03733785
C       -4.63247514      -5.33831266      -3.95701728
C       -5.98522815      -4.96233317      -3.99980520
C       -6.86296125      -5.66099026      -4.80468518
N       -6.42738611      -6.68445152      -5.56607325
C       -5.13651849      -7.04890842      -5.53203224
C       -4.81851437      -8.11643511      -6.34437594
C       -3.52909087      -8.62563793      -6.42455778
C       -2.50149328      -8.06409003      -5.67590227
C       -1.21300865      -8.61524087      -5.79211697
C       -0.14284236      -8.10027736      -5.07192366
C       -0.35526228      -7.02654555      -4.22764448
C       -1.63683084      -6.47463974      -4.10782201
C       -2.76715943      -6.96127231      -4.82057307
C       -4.13663795      -6.43043625      -4.74272309
C       -8.30822236      -5.35967540      -4.89446819
C       -9.02624465      -5.63210405      -6.07583124
C      -10.39497242      -5.36149963      -6.18332777
C      -11.07488842      -4.81403705      -5.10137963
Br     -12.92379942      -4.44886676      -5.23699875
C      -10.39983209      -4.53942553      -3.91646016
C       -9.03008547      -4.81284282      -3.81575827
H       -2.05937044      -1.62534134       0.76943074
H       -3.48850148      -3.03406986      -0.64255999
H       -1.31140484      -1.73045255      -4.13825806
H        0.10493929      -0.30832062      -2.71589133
H       -3.52075283      -2.92701229      -4.37433858
H       -3.62078403      -4.99144565      -2.06964822
H       -6.33249842      -4.12184933      -3.40650609
H       -5.60423091      -8.57792569      -6.93990609
H       -3.34520238      -9.47135269      -7.08395485
H       -1.03178147      -9.46085203      -6.45337432
H        0.84731199      -8.53547405      -5.17160228
H        0.46919000      -6.60819397      -3.65571272
H       -1.71613843      -5.63672731      -3.42724448
H       -8.51071423      -6.06553167      -6.93257182
H      -10.91284390      -5.58653104      -7.11178826
H      -10.92657477      -4.12149863      -3.06257054
H       -8.53972701      -4.60986460      -2.86631938
C       -0.88132717       0.88132717       0.88132717
C       -0.36140336       1.42973622       2.05050061
C       -1.16909717       2.23675907       2.85758601
C       -2.50272750       2.49088595       2.50758945
C       -3.00450503       1.94358898       1.31839384
C       -2.19893631       1.13648991       0.50901080
C       -3.37687425       3.34892189       3.31956422
C       -3.33906670       3.38816710       4.66132838
C       -4.24495654       4.24269237       5.44015617
C       -3.83646363       5.58385431       5.52704859
C       -4.58921278       6.48087129       6.25855262
N       -5.72365157       6.08485977       6.86939954
C       -6.12151537       4.80590176       6.79004203
C       -7.28865647       4.52341029       7.46725866
C       -7.83779269       3.24822309       7.49327080
C       -7.21715557       2.19956013       6.82476988
C       -7.81268570       0.92689677       6.88078402
C       -7.24348633      -0.16260467       6.23416171
C       -6.07049432       0.01442887       5.52452912
C       -5.47308130       1.27977405       5.46643724
C       -6.01178444       2.42866586       6.10855451
C       -5.43849184       3.78300858       6.08829687
C       -4.22579758       7.90399355       6.43257482
C       -5.22222196       8.88012119       6.63183679
C       -4.90340389      10.23166073       6.80473520
C       -3.57230912      10.63221092       6.78578506
Br      -3.13299376      12.45468911       7.02198205
C       -2.56159693       9.69473382       6.59938703
C       -2.88778929       8.34380157       6.42709570
H        0.66857627       1.24158606       2.34227125
H       -0.73823237       2.67003265       3.75686630
H       -4.03268711       2.13215422       1.01527412
H       -2.60894970       0.71523774      -0.40491479
H       -4.10767915       3.94166198       2.77276256
H       -2.64930994       2.78580983       5.24675812
H       -2.93657717       5.90994747       5.01432919
H       -7.79479395       5.32504350       8.00222523
H       -8.76055994       3.09180390       8.04814608
H       -8.73648060       0.77354218       7.43598504
H       -7.71441294      -1.14002127       6.28537266
H       -5.60930332      -0.82529571       5.01070907
H       -4.55862162       1.33179246       4.88969614
H       -6.27072961       8.58386754       6.65422058
H       -5.70123647      10.95373652       6.95619021
H       -1.51805439       9.99844377       6.59414577
H       -2.07135266       7.63474445       6.30981388
C        0.88132717      -0.88132717       0.88132717
C        0.50283528      -1.14373222       2.19507268
C        1.31052153      -1.95086610       3.00205461
C        2.50539603      -2.49048061       2.50532626
C        2.86248504      -2.22893249       1.17507032
C        2.05646320      -1.42245457       0.36551925
C        3.37081792      -3.35839342       3.31614902
C        3.56912726      -3.18633155       4.63310337
C        4.45998131      -4.06155894       5.40626483
C        3.87521500      -5.27860032       5.79355121
C        4.60227655      -6.17479634       6.55156380
N        5.87469003      -5.90104038       6.90218047
C        6.44104808      -4.74140870       6.53500237
C        7.73995892      -4.57380450       6.96556200
C        8.47170616      -3.42903507       6.67854535
C        7.90736212      -2.39962000       5.93450346
C        8.68920982      -1.26108855       5.67006812
C        8.18498356      -0.19790148       4.93215834
C        6.89055100      -0.26686570       4.45203561
C        6.10760942      -1.39826079       4.71342239
C        6.57238083      -2.51437960       5.46224438
C        5.80618732      -3.73087556       5.77273440
C        4.06454979      -7.46638949       7.03142667
C        4.92086508      -8.56393865       7.24937621
C        4.43713638      -9.79413543       7.70852801
C        3.07920472      -9.94724577       7.96385461
Br       2.41832814     -11.60394740       8.58738938
C        2.20545295      -8.88274772       7.76751712
C        2.69636632      -7.65437375       7.30794649
H       -0.41735641      -0.73161498       2.60102247
H        0.98757042      -2.15827492       4.01928599
H        3.77882810      -2.64285087       0.75843647
H        2.35469400      -1.22520533      -0.66062668
H        3.89307054      -4.14869161       2.78034154
H        3.09516915      -2.38820251       5.19850624
H        2.85900818      -5.51165048       5.49019517
H        8.20647639      -5.36278851       7.55279778
H        9.49200154      -3.35862415       7.04988423
H        9.71009797      -1.19379156       6.04211829
H        8.80009533       0.67530791       4.73497691
H        6.47729393       0.55427514       3.87169789
H        5.10728889      -1.37200296       4.30081838
H        5.98893156      -8.46092408       7.05896208
H        5.13035177     -10.61632695       7.86448449
H        1.14416121      -8.99130264       7.97518008
H        1.98923259      -6.83631373       7.19036467
