193
Properties=species:S:1:pos:R:3 pbc="F F F"
C        0.00000000       0.00000000       0.00000000
C        0.88132717       0.88132717      -0.88132717
C        2.26500436       0.84388672      -0.73274911
C        3.07187606       1.65149322      -1.54007296
C        2.50109465       2.50862444      -2.49148380
C        1.10690512       2.52120388      -2.63837884
C        0.29745829       1.71427901      -1.83269971
C        3.31624152       3.35799680      -3.37112204
C        4.45390514       3.95467843      -2.97997861
C        5.23042432       4.81550893      -3.88187183
C        6.06506564       4.11443001      -4.76787088
C        6.86906508       4.81344861      -5.64612300
N        6.84160342       6.16077613      -5.67553133
C        6.04605262       6.83787474      -4.83353179
C        6.11761687       8.20953220      -4.95217635
C        5.36512082       9.06059515      -4.15357060
C        4.50089412       8.54649559      -3.19409587
C        3.76034456       9.44939535      -2.41062659
C        2.87915970       9.00052774      -1.43535595
C        2.73232472       7.64045667      -1.23667092
C        3.46823902       6.73722379      -2.01382979
C        4.38323913       7.14082198      -3.02494370
C        5.18552682       6.24864093      -3.87562954
C        7.80108046       4.16635098      -6.59493452
C        8.12982984       4.78882450      -7.81552561
C        9.01330893       4.19963649      -8.72685440
C        9.59093464       2.97082744      -8.42854302
C        9.29555005       2.33101286      -7.22915488
C        8.41063294       2.92639369      -6.32165993
H        2.72741221       0.18969471       0.00182587
H        4.15096486       1.59367642      -1.42049004
H        0.63587062       3.16837550      -3.37586932
H       -0.78168556       1.74426858      -1.95668965
H        2.92664943       3.52136842      -4.37408584
H        4.85839070       3.84651326      -1.97697394
H        6.06930037       3.02862561      -4.76292785
H        6.78844220       8.64010996      -5.69351053
H        5.46966763      10.13410651      -4.29673578
H        3.86631086      10.52298408      -2.55671289
H        2.31307631       9.70905641      -0.83763163
H        2.04720856       7.26857352      -0.47893461
H        3.29335487       5.69169637      -1.79505898
H        7.69017076       5.75449559      -8.06415139
H        9.24148484       4.71217330      -9.65750507
H        9.75141358       1.37536015      -6.98387020
H        8.22249425       2.41085981      -5.38255693
C       10.50293667       2.36053530      -9.36095698
C       11.26673837       1.84941562     -10.14185367
Br      12.50174113       1.02297835     -11.40449757
C       -0.88132717      -0.88132717      -0.88132717
C       -1.91372276      -1.61914692      -0.30877050
C       -2.72059892      -2.42645953      -1.11638379
C       -2.49372001      -2.51009242      -2.49739046
C       -1.45992403      -1.74759720      -3.05896661
C       -0.65164681      -0.93896679      -2.25382342
C       -3.33169918      -3.33211733      -3.38154385
C       -3.84308647      -4.52127293      -3.02420277
C       -4.65840250      -5.32526909      -3.94413349
C       -6.00276151      -4.92508447      -4.01952054
C       -6.87845680      -5.62242462      -4.82775527
N       -6.44826767      -6.66804547      -5.56159774
C       -5.16539137      -7.05572679      -5.49634099
C       -4.85261926      -8.14417710      -6.28252905
C       -3.57180501      -8.67869018      -6.32879139
C       -2.54784999      -8.12226198      -5.57137362
C       -1.26809901      -8.69937340      -5.65289409
C       -0.20194358      -8.19084370      -4.92225610
C       -0.40964483      -7.09754836      -4.10225912
C       -1.68253494      -6.51974247      -4.01701518
C       -2.80843316      -6.99869180      -4.74187985
C       -4.16882110      -6.44110902      -4.69986716
C       -8.31583201      -5.29604878      -4.95048516
C       -9.01679996      -5.57741127      -6.13996872
C      -10.37792122      -5.28349336      -6.27838524
C      -11.06734111      -4.70308889      -5.21987510
C      -10.40934875      -4.41867818      -4.02769085
C       -9.04713596      -4.71555561      -3.89599499
H       -2.10373710      -1.57190943       0.76036550
H       -3.53280030      -2.98032046      -0.65201056
H       -1.26679060      -1.78385283      -4.12947201
H        0.14955120      -0.36160886      -2.70721500
H       -3.49363743      -2.94339056      -4.38507570
H       -3.67558399      -4.96158028      -2.04471362
H       -6.34501812      -4.06720223      -3.44863349
H       -5.63572975      -8.60217927      -6.88415366
H       -3.39174292      -9.54001624      -6.96875076
H       -1.09066074      -9.56058167      -6.29476541
H        0.78147128      -8.64618253      -4.99505308
H        0.41180929      -6.68383711      -3.52268886
H       -1.75859452      -5.66775896      -3.35375675
H       -8.49373431      -6.03649895      -6.97858446
H      -10.88261258      -5.51640554      -7.21214508
H      -10.94386333      -3.97493132      -3.19184929
H       -8.57075567      -4.50377999      -2.94137532
C      -12.46871779      -4.40065132      -5.35505984
C      -13.64237076      -4.14735984      -5.46827707
Br     -15.54006834      -3.73780896      -5.65133975
C       -0.88132717       0.88132717       0.88132717
C       -0.37208179       1.40165145       2.06790695
C       -1.17977646       2.20868449       2.87498129
C       -2.50300366       2.49080921       2.50739002
C       -2.99375452       1.97162258       1.30111075
C       -2.18814717       1.16458669       0.49170315
C       -3.37637545       3.34987250       3.31911241
C       -3.36037800       3.36639847       4.66178572
C       -4.26498741       4.22302842       5.43978925
C       -3.83599444       5.55555811       5.55581398
C       -4.58601456       6.45288492       6.28973721
N       -5.73687500       6.06590938       6.87512650
C       -6.15434440       4.79526471       6.76785004
C       -7.33714066       4.52123304       7.42095171
C       -7.90754145       3.25515503       7.41659010
C       -7.29314595       2.20739741       6.74094222
C       -7.91038823       0.94412501       6.76585326
C       -7.34845421      -0.14395935       6.11054852
C       -6.16100148       0.02507888       5.42337195
C       -5.54196248       1.28103781       5.39629230
C       -6.07235615       2.42806016       6.04858851
C       -5.47659955       3.77277312       6.06042461
C       -4.20219592       7.86667290       6.49349712
C       -5.18561910       8.85592181       6.69263903
C       -4.84754426      10.19891130       6.89334426
C       -3.50990871      10.57739610       6.90300029
C       -2.51178093       9.62633642       6.71760043
C       -2.85722819       8.28406743       6.51739094
H        0.64963783       1.19152282       2.37339605
H       -0.75694505       2.61983535       3.78835092
H       -4.01348041       2.18232283       0.98431221
H       -2.58969014       0.76534609      -0.43576357
H       -4.08807978       3.96367102       2.77035289
H       -2.69051492       2.74303654       5.24832644
H       -2.92241362       5.87494371       5.06349651
H       -7.83889863       5.32231058       7.96085348
H       -8.84191031       3.10508586       7.95351374
H       -8.84573948       0.79713142       7.30313692
H       -7.83618924      -1.11407165       6.13764675
H       -5.70515809      -0.81367559       4.90323418
H       -4.61725082       1.32723367       4.83562574
H       -6.23908678       8.57692116       6.69280979
H       -5.63581049      10.93164278       7.04370994
H       -1.46344108       9.91259233       6.73461052
H       -2.05072050       7.56347758       6.40171291
C       -3.15535535      11.95737293       7.11170067
C       -2.85841691      13.11310353       7.28648723
Br      -2.37829256      14.98182216       7.56910232
C        0.88132717      -0.88132717       0.88132717
C        0.57592108      -1.03487751       2.23084160
C        1.38359482      -1.84205790       3.03778952
C        2.50632698      -2.49054789       2.50432803
C        2.78926140      -2.33745371       1.13977274
C        1.98303190      -1.53119910       0.33020602
C        3.36793743      -3.36187513       3.31554780
C        3.66436845      -3.12120401       4.60298973
C        4.54832369      -4.00388001       5.37560138
C        3.91560727      -5.15234713       5.87941213
C        4.63413127      -6.04588835       6.64861707
N        5.94182343      -5.83647608       6.89961137
C        6.55395417      -4.74268282       6.42082216
C        7.88672504      -4.63573380       6.75686657
C        8.66798167      -3.56278383       6.34852107
C        8.12078091      -2.54660229       5.57410239
C        8.95304715      -1.48180151       5.18551783
C        8.46823963      -0.43563037       4.41117339
C        7.14279766      -0.44776422       4.01889043
C        6.30968572      -1.50557673       4.40403014
C        6.75261497      -2.60113054       5.19525930
C        5.93412947      -3.74172607       5.63394175
C        4.04977709      -7.26593475       7.24665411
C        4.84822409      -8.40251045       7.48344541
C        4.32010504      -9.56633353       8.05336125
C        2.97538874      -9.61187382       8.40304253
C        2.15895239      -8.50568685       8.19107854
C        2.69408342      -7.34418615       7.62041699
H       -0.28736168      -0.53743043       2.66521229
H        1.11709470      -1.96316212       4.08487450
H        3.64788352      -2.83710689       0.69512505
H        2.22368188      -1.41911589      -0.72352510
H        3.80254305      -4.21741368       2.80214696
H        3.28032618      -2.25924427       5.14230745
H        2.86875861      -5.33541268       5.65668254
H        8.34109620      -5.41578540       7.36518108
H        9.71325067      -3.53768088       6.64957837
H        9.99875870      -1.45979443       5.48745470
H        9.12233216       0.38034832       4.11778050
H        6.74394125       0.36117573       3.41195116
H        5.28760871      -1.43834436       4.05415716
H        5.90550081      -8.38337749       7.21993943
H        4.96926261     -10.42168270       8.22021789
H        1.10922904      -8.52970835       8.47170655
H        2.03337607      -6.48961208       7.49292283
C        2.42646728     -10.80560496       8.99235671
C        1.96674555     -11.80535479       9.48590733
Br       1.22341440     -13.42186570      10.28393695
