93
Properties=species:S:1:pos:R:3 pbc="F F F"
C        0.00000000       0.00000000       0.00000000
C        0.88187534       0.88187534      -0.88187534
C        2.26534526       0.69795782      -0.88017959
C        3.07489760       1.50756853      -1.68035675
C        2.48518546       2.47924687      -2.48802480
C        1.10356132       2.67691003      -2.47833333
C        0.29705160       1.86980434      -1.67483352
O        3.23322854       3.37318804      -3.27614441
C        4.30890290       2.91270365      -4.01607661
O        4.71297532       1.76426624      -4.10478992
C        4.93672336       4.04891996      -4.72678413
C        6.08993652       3.80536824      -5.46606141
N        6.75873031       4.76000747      -6.16134083
C        6.24907836       6.01363315      -6.11854182
C        5.10501154       6.35011669      -5.41111485
Br       4.46086436       8.12232536      -5.40849270
C        4.43620082       5.35519411      -4.70240554
H        2.72258395      -0.06767110      -0.25898944
H        4.15183430       1.36729785      -1.66268807
H        0.65466814       3.45362733      -3.09072762
H       -0.77931578       2.01997880      -1.67024892
H        6.52747785       2.81073997      -5.52593862
H        6.80657440       6.75363354      -6.68634945
H        3.53760213       5.60261224      -4.14469298
C       -0.88187534      -0.88187534      -0.88187534
C       -1.85417844      -1.69358237      -0.29572185
C       -2.65739284      -2.50629775      -1.09913229
C       -2.48907827      -2.48032373      -2.48305513
C       -1.50573646      -1.68271859      -3.07034963
C       -0.70145392      -0.87481279      -2.26542275
O       -3.21550642      -3.31120371      -3.35585086
C       -4.57687484      -3.48595329      -3.17485504
O       -5.28582814      -2.97152706      -2.32467628
C       -5.09111976      -4.42134493      -4.19996275
C       -6.43087043      -4.79159893      -4.13889682
N       -7.02224796      -5.64002933      -5.01780133
C       -6.23957116      -6.13734971      -6.00433245
C       -4.89634438      -5.82391676      -6.14598194
Br      -3.87923649      -6.55911506      -7.55333087
C       -4.30933011      -4.95339123      -5.23107912
H       -1.99215698      -1.70397796       0.78223266
H       -3.40228062      -3.14551458      -0.63402502
H       -1.36363670      -1.68818981      -4.14719658
H        0.06135702      -0.24992600      -2.72234297
H       -7.09119465      -4.41074938      -3.36221242
H       -6.74319179      -6.81173795      -6.69162765
H       -3.25853061      -4.69677439      -5.32960235
C       -0.88187534       0.88187534       0.88187534
C       -0.84936955       2.26837525       0.72573787
C       -1.64955156       3.07773891       1.53553241
C       -2.48790489       2.48535872       2.47919352
C       -2.50926670       1.10020651       2.64933148
C       -1.70575379       0.29376868       1.84216699
O       -3.27892728       3.23134223       3.37229148
C       -3.98826229       4.33042658       2.91899431
O       -4.04604331       4.75863738       1.77735079
C       -4.70910711       4.94993478       4.05338556
C       -5.42060627       6.12226005       3.81849984
N       -6.12159329       6.78597785       4.77250747
C       -6.11388325       6.25108453       6.01628554
C       -5.43590152       5.08671661       6.34362495
Br      -5.48136382       4.40801444       8.10230417
C       -4.72068439       4.42350325       5.34961282
H       -0.20414067       2.72802334      -0.01826173
H       -1.60796373       4.15665042       1.41720608
H       -3.14576130       0.64850724       3.40475454
H       -1.72528402      -0.78521310       1.97084102
H       -5.45198292       6.58033341       2.83184012
H       -6.68533762       6.80520769       6.75601208
H       -4.18576271       3.50924867       5.58989597
C        0.88187534      -0.88187534       0.88187534
C        0.61421122      -0.98127252       2.24799893
C        1.42321269      -1.78148341       3.05812679
C        2.47945493      -2.48837566       2.48462654
C        2.75995775      -2.37691821       1.12192873
C        1.95304995      -1.57344277       0.31519674
O        3.37541921      -3.26743859       3.23970320
C        2.89923469      -4.10238547       4.23606302
O        1.73648626      -4.28702951       4.55851571
C        4.03881331      -4.78175990       4.89185424
C        3.77392759      -5.60786220       5.97957638
N        4.72915045      -6.28560462       6.66532355
C        6.00608991      -6.13341911       6.24174430
C        6.36504907      -5.33396734       5.16722666
Br       8.16932078      -5.18143741       4.64092422
C        5.36883171      -4.64530394       4.47966481
H       -0.21660889      -0.43894552       2.69156565
H        1.21667747      -1.84239704       4.12274571
H        3.60074182      -2.91035025       0.68793101
H        2.16796926      -1.48979739      -0.74685471
H        2.76046234      -5.75657927       6.34711484
H        6.74603427      -6.69005611       6.81046701
H        5.63383582      -4.01634822       3.63472330
