142
Properties=species:S:1:pos:R:3 pbc="F F F"
C        1.79163537       1.79163537      -1.79163537
C        1.57563788       3.16832462      -1.82582777
C        2.38227312       3.97355427      -2.63260151
C        3.39426662       3.39911085      -3.41348977
C        3.61756162       2.01667330      -3.36112701
C        2.81095323       1.21297709      -2.54921244
C        4.21948291       4.29732019      -4.26596637
O        4.51268456       5.40144949      -3.82318886
N        4.52789396       3.79211968      -5.51705192
C        5.25428175       4.43999973      -6.53807231
C        5.83970012       5.69415554      -6.40471633
C        6.53160162       6.26847009      -7.47542432
C        6.65386726       5.59707375      -8.69788779
C        6.08052460       4.33253363      -8.86044221
C        5.38365405       3.77065262      -7.76143279
C        6.13622979       3.49949266     -10.11631733
F        6.73381505       2.29290981      -9.88935735
F        4.88483910       3.19658228     -10.57121750
F        6.78791151       4.03135552     -11.18040380
H        0.78933731       3.62460685      -1.22980344
H        2.22011147       5.04962600      -2.65542268
H        4.42977694       1.55752016      -3.91809173
H        2.98962348       0.14121788      -2.50586470
H        4.12625640       2.89554772      -5.75976319
H        5.77869816       6.26154430      -5.48080134
H        6.97345079       7.25395252      -7.33697692
H        4.93368342       2.78509896      -7.88594021
C        7.38718819       6.28883656      -9.72614098
C        8.00134447       6.86818792     -10.58730303
Br       8.99438323       7.80495006     -11.97972923
C       -1.79163537      -1.79163537      -1.79163537
C       -3.04166756      -1.32874756      -2.19937515
C       -3.84716600      -2.13590675      -3.00535614
C       -3.40679353      -3.40924232      -3.39083139
C       -2.14181667      -3.86150134      -2.99204393
C       -1.33537018      -3.04953187      -2.18824071
C       -4.30610012      -4.23659746      -4.24007190
O       -4.96845350      -3.66865330      -5.10021612
N       -4.33339835      -5.58299869      -3.92066852
C       -5.12166436      -6.58303831      -4.52765113
C       -5.96263110      -6.36303466      -5.61290623
C       -6.71990570      -7.41157689      -6.14401345
C       -6.64688931      -8.70025377      -5.60168572
C       -5.80634876      -8.95340580      -4.51374588
C       -5.04873298      -7.87499300      -3.99201349
C       -5.62946388     -10.28814421      -3.83443169
F       -4.32988208     -10.70444829      -3.88175185
F       -5.93165994     -10.21627658      -2.50470235
F       -6.35929981     -11.32573127      -4.31463974
H       -3.39698574      -0.34563961      -1.90112225
H       -4.82060493      -1.77368485      -3.33087037
H       -1.75949920      -4.82349101      -3.32239863
H       -0.35186663      -3.40023727      -1.88460217
H       -3.79173928      -5.87318643      -3.11664159
H       -6.05982087      -5.38548231      -6.07574063
H       -7.37125011      -7.20209686      -6.99103326
H       -4.39358185      -8.06907006      -3.14207068
C       -7.47369420      -9.69680977      -6.23166177
C       -8.16614329     -10.53142542      -6.75926671
Br      -9.28577490     -11.88092834      -7.61235928
C       -1.79163537       1.79163537       1.79163537
C       -2.99309569       1.28856293       2.28813164
C       -3.79865809       2.09574332       3.09402748
C       -3.40772973       3.40838679       3.39075072
C       -2.19034767       3.90208976       2.90292451
C       -1.38347398       3.09027574       2.09939304
C       -4.30573754       4.23327293       4.24375901
O       -4.89267135       3.67916091       5.16549065
N       -4.42069719       5.55768315       3.85868521
C       -5.22937962       6.54751107       4.45546311
C       -6.00158461       6.34335659       5.59363079
C       -6.78576974       7.37908594       6.11064036
C       -6.80887072       8.63913619       5.50082189
C       -6.03898929       8.87618551       4.35832564
C       -5.25240190       7.81118183       3.85215574
C       -5.96786791      10.18013222       3.60403964
F       -4.69153705      10.66345034       3.56109483
F       -6.33256852      10.02247869       2.29759165
F       -6.72667561      11.20361429       4.06938093
H       -3.31023038       0.27429903       2.05921819
H       -4.73377551       1.70265832       3.48872632
H       -1.84354234       4.89836281       3.16348368
H       -0.43660200       3.47354688       1.72655719
H       -3.93652692       5.83167713       3.01336326
H       -6.02315270       5.38814474       6.10974637
H       -7.38145164       7.18233069       7.00059791
H       -4.65225193       7.99261234       2.95985832
C       -7.65464198       9.62476688       6.12275688
C       -8.36297541      10.45023257       6.64362743
Br      -9.50829066      11.78494079       7.48583106
C        1.79163537      -1.79163537       1.79163537
C        1.39817917      -3.09906815       2.07254295
C        2.20502792      -3.90430995       2.87909103
C        3.39665077      -3.39638383       3.41383264
C        3.79514921      -2.08696195       3.11325076
C        2.98730354      -1.28392470       2.30191453
C        4.21623545      -4.28926641       4.27726761
O        4.28234951      -5.47580925       3.97916415
N        4.78483475      -3.67353920       5.37869161
C        5.56858477      -4.28299399       6.38077503
C        5.94902072      -5.62035694       6.36919433
C        6.71694174      -6.14563600       7.41291829
C        7.12162388      -5.34180231       8.48540262
C        6.75903668      -3.99221701       8.52224676
C        5.98007945      -3.48216754       7.45349247
C        7.12595108      -3.01521138       9.61087731
F        7.83885773      -1.96083725       9.11638722
F        6.01551276      -2.45879890      10.17832721
F        7.85927757      -3.49350861      10.64688465
H        0.47265009      -3.50198802       1.66910948
H        1.90339226      -4.92783682       3.09393107
H        4.74022634      -1.69066252       3.47449997
H        3.30124477      -0.27002741       2.06543388
H        4.55270344      -2.70006784       5.52879602
H        5.66570798      -6.29148940       5.56384642
H        6.99279115      -7.19821262       7.37337646
H        5.69408984      -2.43013505       7.48049770
C        7.90731829      -5.99428342       9.50056403
C        8.56533736      -6.54073635      10.35076171
Br       9.62929854      -7.42430452      11.72545946
C       -0.00445707       0.01189536      -1.78238275
H       -0.66409135       0.67374010      -2.43557963
H        0.65740317      -0.63156657      -2.45157240
C       -0.90989263      -0.90692880      -0.91072765
C        0.90977584       0.90977584      -0.90977584
C       -0.00465871       1.77757030       0.00794375
H       -0.66225468       2.44313916      -0.64384735
H        0.64322798       2.43503045       0.67728295
C       -1.78241447       0.00034974      -0.00472694
H       -2.45427497      -0.65498947       0.64260836
H       -2.43311707       0.67328779      -0.65473579
C       -0.91132561       0.90220522       0.91563759
C       -0.01476271      -0.02253852       1.78660255
H       -0.67934791      -0.69751639       2.42135241
H        0.63392994       0.61504881       2.47327442
C        0.01484550      -1.77751727      -0.01636693
H        0.67870853      -2.42144646      -0.68295456
H       -0.62264859      -2.45592969       0.64226336
C        1.78714474       0.01002794       0.00389507
H        2.44202412       0.67113390       0.66197326
H        2.45385902      -0.65136977      -0.64189061
C        0.91606151      -0.90478549       0.90901405
