121
Properties=species:S:1:pos:R:3 pbc="F F F"
C        0.00000000       0.00000000       0.00000000
C        0.88173135       0.88173135      -0.88173135
C        0.66573385       2.25842060      -0.91592374
C        1.47236909       3.06365024      -1.72269749
C        2.48436259       2.48920683      -2.50358574
C        2.70765760       1.10676927      -2.45122299
C        1.90104920       0.30307307      -1.63930842
C        3.30957889       3.38741617      -3.35606235
O        3.60278054       4.49154546      -2.91328483
N        3.61798993       2.88221565      -4.60714790
C        4.34437773       3.53009570      -5.62816829
C        4.92979609       4.78425152      -5.49481230
C        5.62169760       5.35856607      -6.56552029
C        5.74396324       4.68716973      -7.78798376
C        5.17062058       3.42262961      -7.95053819
C        4.47375003       2.86074860      -6.85152876
C        5.22632576       2.58958863      -9.20641330
F        5.82391102       1.38300579      -8.97945333
F        3.97493507       2.28667825      -9.66131347
F        5.87800749       3.12145150     -10.27049977
H       -0.12056671       2.71470282      -0.31989942
H        1.31020745       4.13972197      -1.74551866
H        3.51987291       0.64761614      -3.00818771
H        2.07971946      -0.76868614      -1.59596068
H        3.21635237       1.98564369      -4.84985916
H        4.86879413       5.35164028      -4.57089732
H        6.06354677       6.34404850      -6.42707290
H        4.02377940       1.87519493      -6.97603618
C        6.47728417       5.37893254      -8.81623696
C        7.09144045       5.95828389      -9.67739901
Br       8.08447921       6.89504603     -11.06982520
C       -0.88173135      -0.88173135      -0.88173135
C       -1.60478030      -0.30864236      -1.92665553
C       -2.41088798      -1.11575728      -2.73207157
C       -2.50269402      -2.49173081      -2.48273034
C       -1.75962101      -3.06431829      -1.44171056
C       -0.94989847      -2.25441764      -0.63911458
C       -3.38418576      -3.30781408      -3.36105756
O       -3.43182432      -3.02384223      -4.55194429
N       -4.11018591      -4.28884474      -2.70832284
C       -5.04758825      -5.17340201      -3.28165146
C       -5.33675217      -5.23163379      -4.64047396
C       -6.29232859      -6.13182320      -5.12163217
C       -6.97335711      -6.99293469      -4.25282493
C       -6.70033639      -6.96127090      -2.88218109
C       -5.72820248      -6.04027430      -2.41755061
C       -7.35506095      -7.82976015      -1.83750659
F       -6.43532381      -8.58405265      -1.16699368
F       -7.96824246      -7.07884140      -0.87584294
F       -8.29755809      -8.70577628      -2.26662438
H       -1.54698378       0.75850556      -2.12555731
H       -2.97080163      -0.67161232      -3.55303412
H       -1.77568812      -4.13615210      -1.26383654
H       -0.36986509      -2.70172358       0.16459468
H       -4.02200728      -4.32884210      -1.70100585
H       -4.84020079      -4.58938864      -5.36174230
H       -6.49670887      -6.14694695      -6.19101235
H       -5.51450999      -6.01198064      -1.34851988
C       -7.93486399      -7.87362002      -4.86396966
C       -8.74012600      -8.61119398      -5.37580337
Br     -10.04216656      -9.80378870      -6.20339519
C       -0.88173135       0.88173135       0.88173135
C       -2.26725814       0.83759854       0.73522151
C       -3.07249842       1.64444051       1.54177790
C       -2.49018068       2.50330120       2.48367329
C       -1.09763200       2.52996396       2.63805390
C       -0.29365632       1.71792063       1.83185374
C       -3.38960516       3.35214853       3.31130371
O       -4.45394999       2.87165698       3.68200387
N       -2.93479778       4.64056054       3.53199516
C       -3.59798722       5.66467175       4.23998275
C       -4.81359773       5.50049518       4.89476701
C       -5.40763719       6.57598927       5.56215750
C       -4.79466371       7.83441083       5.59004219
C       -3.56960350       8.02883858       4.94534629
C       -2.98675715       6.92425262       4.27501763
C       -2.80035173       9.32505959       4.89691639
F       -1.55600172       9.18818251       5.44218591
F       -2.58258200       9.72940881       3.61093599
F       -3.35366844      10.39395676       5.52233355
H       -2.73018304       0.18047878       0.00337372
H       -4.15495221       1.60639170       1.43410417
H       -0.62857570       3.14959139       3.39750966
H        0.78635399       1.73613075       1.95721723
H       -2.07251766       4.90580029       3.07353727
H       -5.33514916       4.54808945       4.90809312
H       -6.36199102       6.41247699       6.06020016
H       -2.03201344       7.07344680       3.76955027
C       -5.50165859       8.86395154       6.30684353
C       -6.09376680       9.72619189       6.90716466
Br      -7.05115570      11.12036160       7.87783314
C        0.88173135      -0.88173135       0.88173135
C        0.29381926      -1.70880420       1.83745474
C        1.10100715      -2.51439974       2.64330993
C        2.49476337      -2.48141245       2.50097935
C        3.07839150      -1.66085964       1.52639872
C        2.26750295      -0.85806989       0.71785785
C        3.31280017      -3.34919493       3.39106230
O        2.87735799      -4.45980484       3.67044801
N        4.47985256      -2.76975286       3.85774806
C        5.41631162      -3.34292474       4.74340536
C        5.33098791      -4.63951607       5.23835593
C        6.29849796      -5.12265738       6.12462862
C        7.37118225      -4.31893425       6.52900024
C        7.48672549      -3.01286072       6.04420216
C        6.49390107      -2.54479196       5.14733436
C        8.58682777      -2.04219768       6.39330225
F        9.26770445      -1.63766967       5.28099601
F        8.08668312      -0.89552503       6.94071864
F        9.53584458      -2.47239889       7.26171528
H       -0.78571302      -1.73791719       1.96183136
H        0.64374980      -3.16633206       3.38536622
H        4.15280013      -1.65885745       1.36401919
H        2.72218039      -0.22630559      -0.04149199
H        4.64482981      -1.80450452       3.60252090
H        4.52259138      -5.30896298       4.95977736
H        6.19759084      -6.14130587       6.49577145
H        6.58038259      -1.52564320       4.76898472
C        8.30250786      -4.92506355       7.44488226
C        9.08249305      -5.43269683       8.21193346
Br      10.34366314      -6.25349693       9.45219038
