157
Properties=species:S:1:pos:R:3 pbc="F F F"
C        0.00000000       0.00000000       0.00000000
C        0.88156029       0.88156029      -0.88156029
C        2.03639050       0.35260988      -1.45401164
C        2.84298986       1.16048130      -2.26095985
C        2.49138770       2.49285045      -2.50518616
S        3.50312872       3.55224225      -3.52294663
C        3.44838149       2.62022772      -5.08773414
C        4.19998994       3.33099124      -6.18722581
C        3.53531631       4.21122722      -7.05486360
C        4.22748332       4.84982010      -8.08874107
C        5.59887683       4.62324096      -8.25581229
C        6.26845204       3.74973514      -7.39211501
C        5.57538319       3.11552675      -6.35903015
C        6.37029558       5.25760078      -9.36154830
O        7.26309753       4.60693831      -9.89115736
N        6.01300276       6.56317378      -9.64700869
C        6.54773612       7.38964639     -10.65736373
C        7.43863693       6.94567480     -11.63755446
C        7.93075799       7.82904934     -12.60534357
C        7.53027962       9.16169722     -12.59623581
Br       8.20397676      10.35692907     -13.89537063
C        6.63504497       9.61788482     -11.63300421
C        6.14273993       8.73140077     -10.66951004
C        1.33802770       3.01645468      -1.91126659
C        0.52992067       2.21121367      -1.10328364
H        2.32155323      -0.68080937      -1.27404277
H        3.75260139       0.73939591      -2.68201859
H        2.40361123       2.47596001      -5.38695286
H        3.87880030       1.62261431      -4.94617365
H        2.46825892       4.39198442      -6.93869025
H        3.67717538       5.48958814      -8.77338419
H        7.33210347       3.56067915      -7.52414079
H        6.11566019       2.44494159      -5.69361105
H        5.36240119       7.00718256      -9.01221929
H        7.76892854       5.91234607     -11.68149084
H        8.62554960       7.46133391     -13.35618981
H        6.31718242      10.65705982     -11.61960963
H        5.44796517       9.11055046      -9.92444753
H        1.05805329       4.05517689      -2.07235191
H       -0.36473312       2.63174183      -0.65160351
C       -0.88156029      -0.88156029      -0.88156029
C       -0.69356068      -2.26204713      -0.88740421
C       -1.50110241      -3.06842827      -1.69490032
C       -2.50307394      -2.49815407      -2.48819630
S       -3.54453743      -3.49802932      -3.53575085
C       -4.31198968      -4.56806586      -2.27628781
C       -5.31751851      -5.51476328      -2.88592521
C       -6.67471160      -5.16576137      -2.96093417
C       -7.60924652      -6.05379617      -3.50300179
C       -7.19054989      -7.29803767      -3.98934252
C       -5.83845557      -7.65086143      -3.92098519
C       -4.90712868      -6.76114615      -3.38166526
C       -8.15475765      -8.28776466      -4.54692235
O       -7.95168851      -9.47680407      -4.33270061
N       -9.17711999      -7.74303026      -5.30303498
C      -10.24106777      -8.43493539      -5.91874308
C      -10.50344872      -9.79333217      -5.72508531
C      -11.57694477     -10.41128422      -6.37692191
C      -12.39397898      -9.66954947      -7.22468421
Br     -13.83581770     -10.50646216      -8.11399660
C      -12.15278395      -8.31275554      -7.42039450
C      -11.08111619      -7.69788757      -6.76464700
C       -2.67082001      -1.10927109      -2.48565788
C       -1.86431234      -0.30032572      -1.67977991
H        0.08003216      -2.71917469      -0.27564411
H       -1.32707726      -4.14155541      -1.70538320
H       -4.80251843      -3.94343252      -1.52057314
H       -3.54176560      -5.14898118      -1.75684147
H       -7.01376676      -4.20347273      -2.58169410
H       -8.65961884      -5.77524467      -3.50528419
H       -5.50867272      -8.62137347      -4.28687723
H       -3.85899029      -7.05154140      -3.34368114
H       -9.11237069      -6.75570965      -5.51372270
H       -9.89287776     -10.40342394      -5.06646376
H      -11.75957457     -11.47031912      -6.21317963
H      -12.78667040      -7.72665476      -8.08052671
H      -10.90904739      -6.63829155      -6.93562422
H       -3.43061078      -0.64468727      -3.11028404
H       -2.00909749       0.77682722      -1.68634195
C       -0.88156029       0.88156029       0.88156029
C       -2.25007761       0.63245412       0.96048029
C       -3.05648618       1.44013584       1.76780899
C       -2.49548338       2.48943960       2.50450133
S       -3.49780750       3.54340499       3.53710511
C       -4.17374919       2.29893095       4.68366322
C       -5.04713921       2.93021205       5.74085573
C       -4.50783143       3.31585886       6.97771685
C       -5.32282535       3.87750673       7.96571240
C       -6.68713870       4.07179889       7.71899250
C       -7.23060274       3.69295809       6.48674136
C       -6.41399294       3.13484804       5.50109911
C       -7.59889842       4.63796945       8.75257679
O       -8.74254509       4.20316206       8.81548605
N       -7.05234835       5.65106250       9.51977439
C       -7.67074761       6.33974933      10.58424931
C       -8.90852121       5.98632687      11.12701812
C       -9.46060783       6.72356786      12.18097521
C       -8.77316198       7.81775685      12.69729382
Br      -9.52401580       8.82024929      14.11201137
C       -7.53396867       8.17693453      12.17503079
C       -6.98383785       7.43576175      11.12405115
C       -1.12267258       2.73923709       2.40383931
C       -0.31392250       1.93372641       1.59676906
H       -2.69966037      -0.17965634       0.39478261
H       -4.12586125       1.24695567       1.80119897
H       -3.34725790       1.75893791       5.16032828
H       -4.76025715       1.55725834       4.13007276
H       -3.44967195       3.16547592       7.18378571
H       -4.88666862       4.12327553       8.93020355
H       -8.29272510       3.83086266       6.29333566
H       -6.85449487       2.85303171       4.54668626
H       -6.14598268       5.99960299       9.23621738
H       -9.47154705       5.13547573      10.75574268
H      -10.42666017       6.43150469      12.58490847
H       -6.99077448       9.02986696      12.57321043
H       -6.01693889       7.73692838      10.72909589
H       -0.67049765       3.56237747       2.95270697
H        0.75147777       2.13851108       1.53157891
C        0.88156029      -0.88156029       0.88156029
C        0.30719599      -1.90933466       1.62648137
C        1.11507196      -2.71594672       2.43341233
C        2.49723238      -2.50364717       2.48854477
S        3.55449167      -3.50942199       3.51440394
C        3.22701957      -5.14602208       2.78330170
C        4.05494509      -6.22541832       3.43784359
C        5.30287017      -6.58943999       2.90909699
C        6.05770347      -7.60681647       3.50152455
C        5.57514913      -8.26206015       4.64072080
C        4.33348295      -7.90162159       5.17519766
C        3.58313295      -6.88361972       4.58318742
C        6.33051559      -9.37202297       5.28690610
O        5.69397397     -10.30433128       5.76288794
N        7.70302502      -9.20200031       5.31815990
C        8.65978064     -10.10123052       5.83373508
C        8.35980621     -11.39499669       6.26706331
C        9.36491856     -12.22770744       6.77252491
C       10.67633589     -11.76783169       6.84404507
Br      12.03102619     -12.88765074       7.53759954
C       10.99405880     -10.48521005       6.40666514
C        9.98755180      -9.65711303       5.89898592
C        3.05934319      -1.45801824       1.74838755
C        2.25389618      -0.64933486       0.94118694
H       -0.76474899      -2.08671274       1.59282288
H        0.64885161      -3.49928276       3.02588151
H        3.44435143      -5.11291026       1.70926241
H        2.16538986      -5.39734049       2.88485790
H        5.68692895      -6.09116583       2.02083880
H        6.99854047      -7.89881861       3.04278862
H        3.94783770      -8.41526907       6.05381666
H        2.62282406      -6.61332754       5.01806124
H        8.05803964      -8.30241699       5.02134641
H        7.35022967     -11.79174057       6.22079521
H        9.10691358     -13.22943941       7.10672033
H       12.01596503     -10.11903413       6.45885271
H       10.25789286      -8.65792096       5.56714935
H        4.12871734      -1.26379971       1.79306505
H        2.70600386       0.15696790       0.36957626
