186
Properties=species:S:1:pos:R:3 pbc="F F F"
C        1.79146431       1.79146431      -1.79146431
C        2.94629453       1.26251390      -2.36391566
C        3.75289388       2.07038533      -3.17086387
C        3.40129173       3.40275448      -3.41509018
S        4.41303274       4.46214628      -4.43285065
C        4.35828551       3.53013174      -5.99763817
C        5.10989397       4.24089526      -7.09712984
C        4.44522034       5.12113125      -7.96476763
C        5.13738734       5.75972413      -8.99864509
C        6.50878085       5.53314499      -9.16571631
C        7.17835607       4.65963916      -8.30201903
C        6.48528721       4.02543077      -7.26893417
C        7.28019961       6.16750481     -10.27145232
O        8.17300156       5.51684233     -10.80106138
N        6.92290679       7.47307781     -10.55691271
C        7.45764014       8.29955042     -11.56726776
C        8.34854096       7.85557883     -12.54745849
C        8.84066202       8.73895336     -13.51524759
C        8.44018365      10.07160125     -13.50613983
C        7.54494899      10.52778884     -12.54290823
C        7.05264396       9.64130480     -11.57941407
C        2.24793173       3.92635871      -2.82117062
C        1.43982469       3.12111770      -2.01318766
H        3.23145726       0.22909465      -2.18394680
H        4.66250541       1.64929993      -3.59192261
H        3.31351525       3.38586403      -6.29685689
H        4.78870432       2.53251833      -5.85607768
H        3.37816295       5.30188844      -7.84859427
H        4.58707940       6.39949216      -9.68328821
H        8.24200750       4.47058318      -8.43404482
H        7.02556422       3.35484562      -6.60351507
H        6.27230522       7.91708658      -9.92212332
H        8.67883257       6.82225010     -12.59139486
H        9.53545362       8.37123794     -14.26609384
H        7.22708645      11.56696384     -12.52951366
H        6.35786920      10.02045448     -10.83435156
H        1.96795732       4.96508091      -2.98225593
H        0.54517091       3.54164585      -1.56150753
C        8.95361339      10.98249658     -14.49622042
C        9.38361080      11.74537143     -15.32541292
Br      10.07888025      12.97887553     -16.66614706
C       -1.79146431      -1.79146431      -1.79146431
C       -1.54243801      -3.16000194      -1.87028413
C       -2.35002948      -3.96638756      -2.67772605
C       -3.41250178      -3.40873329      -3.39790132
S       -4.45610882      -4.40842346      -4.44349739
C       -5.11520881      -5.56840893      -3.20243768
C       -6.10484493      -6.53292203      -3.81015211
C       -7.47830061      -6.24479584      -3.80802276
C       -8.39655194      -7.15046744      -4.34873717
C       -7.94588096      -8.35077855      -4.91098264
C       -6.57765376      -8.64265988      -4.91970063
C       -5.66280739      -7.73533861      -4.38150616
C       -8.88992407      -9.35862430      -5.47060837
O       -8.62411978     -10.54524534      -5.32154016
N       -9.96986346      -8.82907202      -6.15396183
C      -11.02946683      -9.54178852      -6.75320297
C      -11.22153090     -10.91826928      -6.61177809
C      -12.29565778     -11.55601978      -7.24318542
C      -13.18379105     -10.81617775      -8.01795592
C      -13.01289291      -9.44219594      -8.16055722
C      -11.94026968      -8.80778338      -7.52530976
C       -3.64184685      -2.03072181      -3.32289239
C       -2.83547759      -1.22175341      -2.51689905
H       -0.72141562      -3.60731856      -1.31576453
H       -2.12890130      -5.02865597      -2.74617069
H       -5.59726837      -5.00180678      -2.39716102
H       -4.29633496      -6.13528605      -2.74567932
H       -7.84190725      -5.31733443      -3.36940397
H       -9.45727876      -6.92153951      -4.29104151
H       -6.22230802      -9.57935777      -5.34496971
H       -4.60211022      -7.97778550      -4.40402919
H       -9.95923030      -7.83137511      -6.32090970
H      -10.55416041     -11.52795087      -6.01036624
H      -12.42291590     -12.62869779      -7.12117171
H      -13.70252855      -8.85747839      -8.76355701
H      -11.82391401      -7.73471620      -7.65404503
H       -4.45003125      -1.57474385      -3.89051906
H       -3.02840439      -0.15333790      -2.46658200
C      -14.28352977     -11.47377954      -8.67502108
C      -15.20456095     -12.02452104      -9.22531316
Br     -16.69379047     -12.91502347     -10.11508891
C       -1.79146431       1.79146431       1.79146431
C       -2.87366620       1.23178386       2.46727403
C       -3.68032590       2.03967268       3.27414450
C       -3.40055658       3.40363063       3.41494918
S       -4.41498122       4.46322353       4.42982493
C       -4.20691583       3.63808449       6.04105510
C       -4.93502294       4.37123673       7.14165940
C       -4.27705756       5.34344289       7.91061876
C       -4.94528046       6.00407906       8.94639704
C       -6.28687826       5.70669421       9.21406968
C       -6.94991979       4.74114975       8.44894472
C       -6.28103112       4.08498599       7.41363506
C       -7.02946181       6.36294649      10.32674844
O       -7.84543969       5.69502042      10.95044516
N       -6.73983515       7.70318830      10.50987386
C       -7.26464987       8.55893145      11.50087700
C       -8.06488402       8.12580845      12.56088580
C       -8.55344309       9.03807312      13.50334677
C       -8.24021693      10.38905462      13.38865318
C       -7.43542786      10.83569059      12.34452762
C       -6.94622889       9.92061391      11.40652002
C       -2.32076680       3.95652528       2.71816896
C       -1.51283547       3.15128116       1.91001342
H       -3.10249755       0.17372031       2.36828085
H       -4.53423834       1.59249293       3.77699669
H       -3.13898237       3.57623482       6.28101898
H       -4.58042532       2.60942036       5.98745465
H       -3.23263867       5.58015888       7.71584811
H       -4.39686239       6.71818154       9.55481585
H       -7.98946354       4.49738452       8.65978743
H       -6.81633309       3.34201600       6.82557582
H       -6.15823475       8.14399061       9.80928976
H       -8.32523017       7.07943357      12.68781378
H       -9.17696931       8.67803311      14.31778298
H       -7.18600239      11.88909458      12.24846697
H       -6.32310283      10.29241272      10.59715969
H       -2.09857667       5.01835305       2.79836445
H       -0.67562642       3.59505072       1.37764715
C       -8.75042264      11.32887896      14.35302880
C       -9.17771993      12.11598184      15.16069338
Br      -9.86862350      13.38866064      16.46661870
C        1.79146431      -1.79146431       1.79146431
C        1.51411392      -3.15195292       1.90665725
C        2.32172864      -3.95834244       2.71407200
C        3.41225523      -3.40905767       3.39782349
S        4.45687725      -4.40872583       4.44242659
C        5.06199360      -5.61043268       3.21362915
C        6.04355797      -6.58339434       3.82096676
C        7.42264421      -6.32648197       3.78199303
C        8.33264578      -7.24049903       4.32261176
C        7.86838659      -8.41761236       4.92164321
C        6.49459211      -8.67825055       4.96717161
C        5.58808716      -7.76260590       4.42895910
C        8.80233737      -9.43391740       5.48290197
O        8.50708816     -10.61723492       5.36658219
N        9.90886989      -8.91392847       6.13009895
C       10.96573697      -9.63698676       6.72173458
C       11.12410653     -11.02024252       6.60722922
C       12.19787231     -11.66798980       7.22900087
C       13.11940430     -10.93146441       7.96705602
C       12.98216147      -9.55115845       8.08232614
C       11.90973813      -8.90686623       7.45675846
C        3.67022956      -2.03857121       3.28666027
C        2.86392620      -1.22959581       2.48060803
H        0.67109563      -3.59274981       1.38065326
H        2.07879307      -5.01357403       2.81136085
H        5.53813863      -5.07278913       2.38530842
H        4.22069008      -6.16861953       2.78799072
H        7.79664813      -5.41738487       3.31461266
H        9.39659655      -7.03691897       4.23634426
H        6.12833940      -9.59706099       5.42123510
H        4.52307294      -7.98047574       4.48037623
H        9.92405046      -7.91280180       6.27466286
H       10.43001791     -11.62782973       6.03462989
H       12.29861722     -12.74570189       7.12846629
H       13.69798859      -8.96899066       8.65658469
H       11.82005064      -7.82886296       7.56376164
H        4.50090363      -1.58853781       3.82585272
H        3.07921971      -0.16718278       2.40192180
C       14.21891019     -11.59906483       8.61435538
C       15.13974638     -12.15818018       9.15646859
Br      16.62866062     -13.06222242      10.03301980
C       -0.00445707       0.01189536      -1.78238275
H       -0.66409135       0.67374010      -2.43557963
H        0.65740317      -0.63156657      -2.45157240
C       -0.90989263      -0.90692880      -0.91072765
C        0.90977584       0.90977584      -0.90977584
C       -0.00465871       1.77757030       0.00794375
H       -0.66225468       2.44313916      -0.64384735
H        0.64322798       2.43503045       0.67728295
C       -1.78241447       0.00034974      -0.00472694
H       -2.45427497      -0.65498947       0.64260836
H       -2.43311707       0.67328779      -0.65473579
C       -0.91132561       0.90220522       0.91563759
C       -0.01476271      -0.02253852       1.78660255
H       -0.67934791      -0.69751639       2.42135241
H        0.63392994       0.61504881       2.47327442
C        0.01484550      -1.77751727      -0.01636693
H        0.67870853      -2.42144646      -0.68295456
H       -0.62264859      -2.45592969       0.64226336
C        1.78714474       0.01002794       0.00389507
H        2.44202412       0.67113390       0.66197326
H        2.45385902      -0.65136977      -0.64189061
C        0.91606151      -0.90478549       0.90901405
