165
Properties=species:S:1:pos:R:3 pbc="F F F"
C        0.00000000       0.00000000       0.00000000
C        0.88156029       0.88156029      -0.88156029
C        2.03639050       0.35260988      -1.45401164
C        2.84298986       1.16048130      -2.26095985
C        2.49138770       2.49285045      -2.50518616
S        3.50312872       3.55224225      -3.52294663
C        3.44838149       2.62022772      -5.08773414
C        4.19998994       3.33099124      -6.18722581
C        3.53531631       4.21122722      -7.05486360
C        4.22748332       4.84982010      -8.08874107
C        5.59887683       4.62324096      -8.25581229
C        6.26845204       3.74973514      -7.39211501
C        5.57538319       3.11552675      -6.35903015
C        6.37029558       5.25760078      -9.36154830
O        7.26309753       4.60693831      -9.89115736
N        6.01300276       6.56317378      -9.64700869
C        6.54773612       7.38964639     -10.65736373
C        7.43863693       6.94567480     -11.63755446
C        7.93075799       7.82904934     -12.60534357
C        7.53027962       9.16169722     -12.59623581
C        6.63504497       9.61788482     -11.63300421
C        6.14273993       8.73140077     -10.66951004
C        1.33802770       3.01645468      -1.91126659
C        0.52992067       2.21121367      -1.10328364
H        2.32155323      -0.68080937      -1.27404277
H        3.75260139       0.73939591      -2.68201859
H        2.40361123       2.47596001      -5.38695286
H        3.87880030       1.62261431      -4.94617365
H        2.46825892       4.39198442      -6.93869025
H        3.67717538       5.48958814      -8.77338419
H        7.33210347       3.56067915      -7.52414079
H        6.11566019       2.44494159      -5.69361105
H        5.36240119       7.00718256      -9.01221929
H        7.76892854       5.91234607     -11.68149084
H        8.62554960       7.46133391     -13.35618981
H        6.31718242      10.65705982     -11.61960963
H        5.44796517       9.11055046      -9.92444753
H        1.05805329       4.05517689      -2.07235191
H       -0.36473312       2.63174183      -0.65160351
C        8.04370937      10.07259256     -13.58631640
C        8.47370678      10.83546741     -14.41550890
Br       9.16897623      12.06897151     -15.75624303
C       -0.88156029      -0.88156029      -0.88156029
C       -0.62800825      -2.24892642      -0.96607734
C       -1.43560343      -3.05531258      -1.77351501
C       -2.50255953      -2.49888059      -2.48798419
S       -3.54632783      -3.49856432      -3.53342545
C       -4.19697126      -4.66521740      -2.29415469
C       -5.18534949      -5.63107220      -2.90178530
C       -6.55979263      -5.34779796      -2.89381655
C       -7.47675748      -6.25479572      -3.43449129
C       -7.02385800      -7.45152879      -4.00254329
C       -5.65465330      -7.73855341      -4.01709548
C       -4.74110806      -6.82990916      -3.47892287
C       -7.96632209      -8.46072391      -4.56239866
O       -7.69582799      -9.64691696      -4.41844825
N       -9.05051658      -7.93258446      -5.24008419
C      -10.10971570      -8.64692215      -5.83810839
C      -10.29644440     -10.02455955      -5.70086226
C      -11.37054352     -10.66387038      -6.33073700
C      -12.26399506      -9.92444666      -7.09977092
C      -12.09842740      -8.54937866      -7.23812793
C      -11.02580665      -7.91342451      -6.60441958
C       -2.73647728      -1.12195797      -2.40731372
C       -1.93011848      -0.31298829      -1.60131121
H        0.19652953      -2.69529132      -0.41602484
H       -1.21098829      -4.11654805      -1.84647954
H       -4.67817660      -4.10314965      -1.48519784
H       -3.37450665      -5.23080553      -1.84227608
H       -6.92510627      -4.42317014      -2.45065717
H       -8.53807186      -6.02981191      -3.37226393
H       -5.29752097      -8.67249361      -4.44690885
H       -3.67965187      -7.06853539      -3.50602557
H       -9.04397613      -6.93427607      -5.40355085
H       -9.62482109     -10.63399366      -5.10395070
H      -11.49360252     -11.73741219      -6.21205862
H      -12.79223351      -7.96498117      -7.83663719
H      -10.91367502      -6.83950835      -6.72977979
H       -3.54825385      -0.66684055      -2.97048769
H       -2.12661807       0.75455728      -1.54655143
C      -13.36372642     -10.58360870      -7.75528321
C      -14.28475143     -11.13565691      -8.30427474
Br     -15.77397098     -12.02827216      -9.19194763
C       -0.88156029       0.88156029       0.88156029
C       -2.26077524       0.68498510       0.89725168
C       -3.06717156       1.49262916       1.70463029
C       -2.49608145       2.48909944       2.50424342
S       -3.49762480       3.54181002       3.53888278
C       -4.26700329       2.28209819       4.60724188
C       -5.15719366       2.90663253       5.65438081
C       -4.65366920       3.22196901       6.92576893
C       -5.48546347       3.77730646       7.90327455
C       -6.83015559       4.03589051       7.61188398
C       -7.33775189       3.72733830       6.34521200
C       -6.50430203       3.17537672       5.37026134
C       -7.76022762       4.59787926       8.63133778
O       -8.92147791       4.20744405       8.63227124
N       -7.20620194       5.55759584       9.45938746
C       -7.83986907       6.22887834      10.52599883
C       -9.11129920       5.90489328      11.00567372
C       -9.67645089       6.62238688      12.06631313
C       -8.96848658       7.66711572      12.65261035
C       -7.69624296       7.99599473      12.19369631
C       -7.13331654       7.27453894      11.13579527
C       -1.11167595       2.68703462       2.46703841
C       -0.30286804       1.88145374       1.66009619
H       -2.71832115      -0.08578706       0.28225254
H       -4.14370807       1.34159135       1.68871647
H       -3.48196866       1.69113339       5.09342205
H       -4.85901745       1.58670718       4.00186363
H       -3.61130939       3.02115045       7.16647375
H       -5.07936520       3.96770444       8.89307806
H       -8.38506294       3.91536693       6.11649355
H       -6.91654276       2.94877220       4.38889788
H       -6.27630550       5.88002468       9.22547287
H       -9.69145470       5.09247926      10.57883149
H      -10.66860640       6.35408746      12.42037946
H       -7.13689257       8.81024363      12.64671567
H       -6.14032494       7.55154534      10.79109288
H       -0.65043544       3.46936736       3.06577929
H        0.77143249       2.04547107       1.64457363
C       -9.55369035       8.41120752      13.73772046
C      -10.04379851       9.03438441      14.64650017
Br     -10.83626195      10.04200872      16.11592010
C        0.88156029      -0.88156029       0.88156029
C        0.29930223      -1.86363862       1.68007116
C        1.10718772      -2.67028355       2.48695974
C        2.49672033      -2.50392866       2.48877533
S        3.55461142      -3.51080637       3.51289982
C        3.14795871      -5.15857757       2.84980707
C        3.96156070      -6.24345039       3.51319591
C        5.17777028      -6.66755256       2.95608430
C        5.91828948      -7.69002798       3.55772703
C        5.45368147      -8.29005116       4.73419745
C        4.24380156      -7.86955273       5.29694790
C        3.50779568      -6.84659296       4.69555145
C        6.19350382      -9.40323799       5.39270285
O        5.54306433     -10.29676255       5.92136632
N        7.57116970      -9.27957358       5.37244196
C        8.51466498     -10.19353748       5.88654378
C        8.18692315     -11.46109928       6.37384377
C        9.18058354     -12.31061919       6.87394818
C       10.50824876     -11.89399370       6.88597018
C       10.85320889     -10.63830877       6.39441633
C        9.85792578      -9.79342309       5.89230188
C        3.06749637      -1.50343640       1.69481620
C        2.26209665      -0.69481503       0.88750629
H       -0.77847049      -2.00506686       1.68819027
H        0.63583355      -3.41699115       3.12119118
H        3.32920478      -5.16868641       1.76863290
H        2.08268141      -5.36972079       2.99518606
H        5.54740689      -6.21258892       2.03893777
H        6.83256471      -8.02930420       3.07827879
H        3.87173768      -8.34013802       6.20504772
H        2.57252841      -6.52912552       5.15255891
H        7.94547833      -8.40309763       5.03322709
H        7.16372059     -11.82420639       6.37483847
H        8.90106301     -13.29122033       7.25078999
H       11.88791432     -10.30596188       6.39997568
H       10.14976496      -8.81570476       5.51749345
H        4.14364006      -1.34473224       1.69720980
H        2.72083522       0.07601182       0.27378882
C       11.52929129     -12.76437290       7.40895414
C       12.38441441     -13.49331548       7.84695320
Br      13.76707616     -14.67195397       8.55516064
